<?xml version="1.0" encoding="UTF-8"?>

<!-- generated on 2023-03-31 10:09:10 by Eclipse SUMO duarouter Version 1.14.0
<configuration xmlns:xsi="http://www.w3.org/2001/XMLSchema-instance" xsi:noNamespaceSchemaLocation="http://sumo.dlr.de/xsd/duarouterConfiguration.xsd">

    <input>
        <net-file value="Tainan.net.xml"/>
        <additional-files value="vtype.xml"/>
        <route-files value="od_file.odtrips.xml"/>
    </input>

    <output>
        <output-file value="rou1/od_route_file.odtrips42.rou.xml"/>
    </output>

</configuration>
-->

<routes xmlns:xsi="http://www.w3.org/2001/XMLSchema-instance" xsi:noNamespaceSchemaLocation="http://sumo.dlr.de/xsd/routes_file.xsd">
    <vType id="0" speedFactor="normc(0.95,0.10,0.60,1.50)"/>
    <vehicle id="1455" type="0" depart="0.06" departLane="free" departSpeed="max" fromTaz="5" toTaz="2">
        <route edges="-496339476#3 -297757248#1 -546374573#5 -546374573#4 -496332204#1 -496332204#0 -545315834#2 -545315834#1 -161036803#3 -161036803#0 279369086#1 279369086#2 306997493#0"/>
    </vehicle>
    <vehicle id="1679" type="0" depart="0.95" departLane="free" departSpeed="max" fromTaz="7" toTaz="4">
        <route edges="228022815#0 228022815#2 228022815#4 228022815#5 228022815#6 286847307#0 161010072#1 -546374573#4 -496332204#1 -496332204#0 41389166#5"/>
    </vehicle>
    <vehicle id="1578" type="0" depart="1.95" departLane="free" departSpeed="max" fromTaz="7" toTaz="13">
        <route edges="-24452782#8 -24452782#6 -24452782#5 -24452782#3 286094881#0 24452804 -521058769#1 -111343195#5 -111343195#2 -297896463#3 -297896463#2 -297896463#1 -286841509#4 -286841509#2 -279365144#3"/>
    </vehicle>
    <vehicle id="268" type="0" depart="2.77" departLane="free" departSpeed="max" fromTaz="12" toTaz="17">
        <route edges="297757252#0 496257361 315886538#0 142297097#0 315886540#0 259871068#0 107538207#0 107538207#2 496253685 365719024#0 319713269#10 319713269#2 319713269#3 279032146#0 279032146#3 496332201#0 274022921#0 274022921#2 274022921#4 160913587"/>
    </vehicle>
    <vehicle id="1967" type="0" depart="3.42" departLane="free" departSpeed="max" fromTaz="9" toTaz="6">
        <route edges="499302825#0 496253677#1 496253677#5 496253677#10 496253677#14 496253677#18 496253677#19 228022815#2 41963902#6 41963902#7"/>
    </vehicle>
    <vehicle id="1324" type="0" depart="4.42" departLane="free" departSpeed="max" fromTaz="3" toTaz="8">
        <route edges="302240826#4 302240826#7 108037210#0 108037210#1 108037210#4 286847309#0 286847309#2 286847309#4 286847309#8 286847309#10"/>
    </vehicle>
    <vehicle id="772" type="0" depart="5.03" departLane="free" departSpeed="max" fromTaz="16" toTaz="15">
        <route edges="-71285598#7 159315422#8 -152086640#0"/>
    </vehicle>
    <vehicle id="1453" type="0" depart="5.19" departLane="free" departSpeed="max" fromTaz="5" toTaz="2">
        <route edges="-496339475#2 -546374573#5 -546374573#4 -496332204#1 -496332204#0 -545315834#2 -545315834#1 -161036803#3 -161036803#0 279369086#1 279369086#2 306997493#0"/>
    </vehicle>
    <vehicle id="857" type="0" depart="9.65" departLane="free" departSpeed="max" fromTaz="16" toTaz="6">
        <route edges="31794904#1 -159315422#0 160253722#4 286094874#0 286094877 286847289#0 24452783#0 496253679#0 gneE27 -203481580#3 286847309#4 41963902#6 496339477#6 496253677#22"/>
    </vehicle>
    <vehicle id="1659" type="0" depart="12.33" departLane="free" departSpeed="max" fromTaz="7" toTaz="2">
        <route edges="228022815#0 228022815#2 228022815#4 228022815#5 228022815#6 286847307#0 286847307#2 286847310#0 496493917#0 250710099#0 250710099#3 496493902 303889712#0 303889712#1 303889712#2 303889712#5"/>
    </vehicle>
    <vehicle id="723" type="0" depart="12.37" departLane="free" departSpeed="max" fromTaz="16" toTaz="11">
        <route edges="41389169#12 41389169#14 496332200#0 496332200#2 496332200#5 496332199#0 259871063#0 307097146 297896463#0 297896463#2 297896463#3 306997494 -158995079#1"/>
    </vehicle>
    <vehicle id="722" type="0" depart="12.51" departLane="free" departSpeed="max" fromTaz="16" toTaz="11">
        <route edges="152086640#0 152086640#1 152086640#5 297757247#0 297757247#3 297896463#0 297896463#2 -158783758#8 -158783758#6"/>
    </vehicle>
    <vehicle id="449" type="0" depart="12.74" departLane="free" departSpeed="max" fromTaz="14" toTaz="11">
        <route edges="279365144#1 228022809#0 228022809#4 228022809#5 228022809#7 228022809#8 228022809#9 297757252#0 -496257360#5 -496257360#3 306997515#4"/>
    </vehicle>
    <vehicle id="619" type="0" depart="12.97" departLane="free" departSpeed="max" fromTaz="14" toTaz="8">
        <route edges="-72871334#3 -72871334#0 72871329#3 72871329#4 72871329#5 436251058 159315419 496249898#1 297757243#0 259871043#0 319713269#7 319713269#8 319713269#10 107538204#0 -24452804 -286094881#1 286094878#0 24452782#4 -203481580#7 521131212#0 41963902#0 286847309#8 286847309#10"/>
    </vehicle>
    <vehicle id="760" type="0" depart="14.87" departLane="free" departSpeed="max" fromTaz="16" toTaz="13">
        <route edges="152086640#0 152086640#1 -496249903#0 297757244#1 228022791 24452776 72871329#0 286847288#0 228022792#0"/>
    </vehicle>
    <vehicle id="530" type="0" depart="15.13" departLane="free" departSpeed="max" fromTaz="14" toTaz="2">
        <route edges="279365144#1 228022809#0 228022809#4 228022809#5 228022809#7 228022809#8 228022809#9 297757252#0 496257361 315886538#0 gneE23 497943357#0 303889712#1 303889712#2 306997514#7 306997514#10 306997514#13 306997493#0"/>
    </vehicle>
    <vehicle id="391" type="0" depart="15.72" departLane="free" departSpeed="max" fromTaz="12" toTaz="8">
        <route edges="-gneE5 496257360#4 496257361 315886538#0 142297097#0 315886540#0 259871068#0 107538207#0 107538207#2 496253685 365719024#0 319713269#10 319713269#2 24430153#0 306997497#0 286094870#0 286094870#3 286094870#7 286094870#11 286094870#15"/>
    </vehicle>
    <vehicle id="1614" type="0" depart="16.88" departLane="free" departSpeed="max" fromTaz="7" toTaz="17">
        <route edges="-521131212#2 -496253677#18 -496253677#17 -496253677#13 -24452786#6 -24452786#2 gneE28 160913587"/>
    </vehicle>
    <vehicle id="1733" type="0" depart="19.01" departLane="free" departSpeed="max" fromTaz="7" toTaz="6">
        <route edges="228022815#0 496253677#21 496253677#22"/>
    </vehicle>
    <vehicle id="953" type="0" depart="19.34" departLane="free" departSpeed="max" fromTaz="18" toTaz="10">
        <route edges="-160913587 274022921#5 -227913938#10 24452779#0 496253677#0 -499302825#3"/>
    </vehicle>
    <vehicle id="900" type="0" depart="19.77" departLane="free" departSpeed="max" fromTaz="16" toTaz="8">
        <route edges="31794904#1 -159315422#0 160253722#4 286094874#0 286094877 286847289#0 24452783#0 496253679#0 gneE27 521131212#0 41963902#0 286847309#8 286847309#10"/>
    </vehicle>
    <vehicle id="1709" type="0" depart="19.78" departLane="free" departSpeed="max" fromTaz="7" toTaz="6">
        <route edges="-24452782#8 496253677#18 496253677#19 228022815#2 41963902#6 41963902#7"/>
    </vehicle>
    <vehicle id="454" type="0" depart="22.12" departLane="free" departSpeed="max" fromTaz="14" toTaz="11">
        <route edges="279365144#1 286841509#0 286841509#3 297896463#0 297896463#2 297896463#3 306997494 -561994814#3 -561994814#0 562025614#0 gneE21 228022818#0 315886539#0 315886539#2"/>
    </vehicle>
    <vehicle id="78" type="0" depart="22.87" departLane="free" departSpeed="max" fromTaz="1" toTaz="15">
        <route edges="-303889712#6 -303889712#3 -303889712#1 -303889712#0 -496253687#1 -536826453 -307097147#3 -307097147#2 -259871063#1 -496332199#1 -496332196#1 -496332196#0 -31794904#6 -31794904#2"/>
    </vehicle>
    <vehicle id="196" type="0" depart="24.31" departLane="free" departSpeed="max" fromTaz="12" toTaz="11">
        <route edges="162442431#0 496257360#1 496257360#4 496257361 315886538#0 gneE22 -562025614#0 561994814#0 561994814#1 -306997494 -496493905#3 81357763#0 -158783758#6"/>
    </vehicle>
    <vehicle id="173" type="0" depart="24.34" departLane="free" departSpeed="max" fromTaz="12" toTaz="10">
        <route edges="297757252#0 496257361 315886538#0 142297097#0 315886540#0 259871068#0 107538207#0 107538207#2 496253685 365719024#0 319713269#10 319713269#2 319713269#3 279032146#0 279032146#3 496332201#0 274022921#0 274022921#2 274022921#4 274022921#5 -227913938#10 24452779#0 -496253674#1"/>
    </vehicle>
    <vehicle id="905" type="0" depart="24.90" departLane="free" departSpeed="max" fromTaz="16" toTaz="8">
        <route edges="31794904#1 -159315422#0 160253722#4 286094874#0 286094877 286847289#0 24452783#0 496253679#0 gneE27 521131212#0 41963902#0 286847309#8 286847309#10"/>
    </vehicle>
    <vehicle id="644" type="0" depart="25.10" departLane="free" departSpeed="max" fromTaz="14" toTaz="8">
        <route edges="-228022792#1 72871344 72871329#2 72871329#3 72871329#4 72871329#5 436251058 159315419 496249898#1 297757243#0 259871043#0 319713269#7 319713269#8 319713269#10 107538204#0 -24452804 -286094881#1 286094878#0 24452782#4 24452782#6 24452782#7"/>
    </vehicle>
    <vehicle id="471" type="0" depart="25.58" departLane="free" departSpeed="max" fromTaz="14" toTaz="15">
        <route edges="-228022792#1 72871344 72871329#2 72871329#3 27067581 228022808#0 -81509012#2 297757244#1"/>
    </vehicle>
    <vehicle id="124" type="0" depart="26.56" departLane="free" departSpeed="max" fromTaz="1" toTaz="6">
        <route edges="-306997496#1 306997514#0 306997514#7 306997514#10 306997514#13 306997492#0 161036803#0 161036803#1 545315834#1 545315834#2 496332204#0 496332204#1 546374573#0 546374573#5 297757248#0 496339477#0 496339477#3 496339477#6 496253677#22"/>
    </vehicle>
    <vehicle id="1397" type="0" depart="29.06" departLane="free" departSpeed="max" fromTaz="5" toTaz="13">
        <route edges="-496253677#23 -496339477#7 -41963902#6 228022815#4 203481580#2 -521131211 -496253680#2 -24452782#3 286094881#0 24452804 -521058769#1 -111343195#5 -111343195#2 -297896463#3 -297896463#2 -297896463#1 -286841509#4 -286841509#2 -279365144#3"/>
    </vehicle>
    <vehicle id="28" type="0" depart="31.80" departLane="free" departSpeed="max" fromTaz="1" toTaz="11">
        <route edges="158895309#2 306997512#1 -158783760#2 -158783760#0 -497943357#4 -303889712#0 -496253687#1 -536826453 -562025613 561994814#1 -158995079#1"/>
    </vehicle>
    <vehicle id="658" type="0" depart="34.80" departLane="free" departSpeed="max" fromTaz="16" toTaz="10">
        <route edges="152086640#0 -159315422#10 -159315422#7 -159315422#5 -159315422#4 -31794904#2 -31794904#0 107538178#1 286852568 -304476025#12 -304476025#11 -304476025#6 -304476025#3 -227913938#10 24452779#0 -496253674#1"/>
    </vehicle>
    <vehicle id="946" type="0" depart="34.94" departLane="free" departSpeed="max" fromTaz="18" toTaz="10">
        <route edges="-160913587 274022921#5 -227913938#10 24452779#0 -496253674#1"/>
    </vehicle>
    <vehicle id="824" type="0" depart="37.04" departLane="free" departSpeed="max" fromTaz="16" toTaz="4">
        <route edges="-71285598#7 -159315422#7 -159315446#0 496332200#0 496332200#2 496332200#5 41389183#0 159279412 306997498#0 -286361759#1 -552358549#4 38367679#0 41389166#0 496332204#0 -302240826#6"/>
    </vehicle>
    <vehicle id="1323" type="0" depart="37.71" departLane="free" departSpeed="max" fromTaz="3" toTaz="8">
        <route edges="-496332203#2 -496332204#1 302240826#7 -496253672 -286847289#0 -286094877 286094870#0 286094870#3 286094870#7 286094870#11 286094870#15"/>
    </vehicle>
    <vehicle id="490" type="0" depart="38.30" departLane="free" departSpeed="max" fromTaz="14" toTaz="15">
        <route edges="-72871334#3 -72871334#0 72871329#3 72871329#4 72871329#5 72871331 158895303#0 307096544#0 -159315446#2 -159315422#5 -159315422#4 -31794904#2"/>
    </vehicle>
    <vehicle id="1339" type="0" depart="40.67" departLane="free" departSpeed="max" fromTaz="3" toTaz="8">
        <route edges="-496332203#2 -496332204#1 302240826#7 -496253672 -286847289#0 -286094877 286094870#0 286094870#3 286094870#7 286094870#11 286094870#15"/>
    </vehicle>
    <vehicle id="42" type="0" depart="44.00" departLane="free" departSpeed="max" fromTaz="1" toTaz="11">
        <route edges="158782352#4 306997513#5 259871045#1 -161036803#3 -161036803#0 -497943357#6 -497943357#4 -497943357#2 -161036801#9 gneE5"/>
    </vehicle>
    <vehicle id="427" type="0" depart="45.64" departLane="free" departSpeed="max" fromTaz="14" toTaz="10">
        <route edges="81509011#0 228022808#4 228022808#6 286841509#0 286841509#3 -307097146 -31794905#4 319713269#8 319713269#10 319713269#2 24430153#0 306997497#0 286094870#0 286094870#3 -27067577#2 24452786#0 24452786#3 24452786#7"/>
    </vehicle>
    <vehicle id="106" type="0" depart="46.90" departLane="free" departSpeed="max" fromTaz="1" toTaz="17">
        <route edges="-306997496#1 -315886536#3 gneE24 gneE22 -562025614#0 561994814#0 561994814#1 -306997494 -297896463#3 -297896463#2 -297896463#1 -307097146 -259871063#1 -496332199#1 -496332196#1 -496332196#0 -31794904#6 -159315422#0 -160253722#3"/>
    </vehicle>
    <vehicle id="908" type="0" depart="48.15" departLane="free" departSpeed="max" fromTaz="16" toTaz="8">
        <route edges="159315419 496249898#1 297757243#0 259871043#0 319713269#7 319713269#8 319713269#10 107538204#0 -24452804 -286094881#1 286094878#0 24452782#4 24452782#6 24452782#7"/>
    </vehicle>
    <vehicle id="158" type="0" depart="51.88" departLane="free" departSpeed="max" fromTaz="12" toTaz="10">
        <route edges="158783758#2 158783758#7 -297896463#2 -297896463#1 -307097146 -259871063#1 -496332199#1 -496332196#1 -496332196#0 -31794904#6 -31794904#2 -31794904#0 107538178#1 286852568 -304476025#12 -304476025#11 -304476025#6 -304476025#3 -227913938#10 -227913938#6"/>
    </vehicle>
    <vehicle id="1554" type="0" depart="53.62" departLane="free" departSpeed="max" fromTaz="7" toTaz="13">
        <route edges="228022815#0 228022815#2 -41963902#4 -521131212#0 203481580#4 -24452782#5 -24452782#3 286094881#0 24452804 286847273#0 319713269#2 319713269#3 319713269#4 319713269#5 72871326#0 259871042#0 297757244#0 81509012#1 556031052#1"/>
    </vehicle>
    <vehicle id="1492" type="0" depart="53.96" departLane="free" departSpeed="max" fromTaz="5" toTaz="8">
        <route edges="-41963902#10 -41963902#6 286847309#8 -496253677#19 -496253677#18 24452782#7"/>
    </vehicle>
    <vehicle id="1983" type="0" depart="55.70" departLane="free" departSpeed="max" fromTaz="9" toTaz="6">
        <route edges="496253674#0 496253677#0 496253677#1 496253677#5 -24452786#6 -24452786#2 27067577#0 27067577#3 496253680#0 496253680#3 496253680#5 496339476#0"/>
    </vehicle>
    <vehicle id="327" type="0" depart="55.72" departLane="free" departSpeed="max" fromTaz="12" toTaz="4">
        <route edges="297757252#0 496257361 315886538#0 142297097#0 315886540#0 259871068#0 298812493#0 298812493#1 496493914 38367679#0 38367679#2 108037210#0 158854903#0 496332203#0"/>
    </vehicle>
    <vehicle id="1972" type="0" depart="56.89" departLane="free" departSpeed="max" fromTaz="9" toTaz="6">
        <route edges="-24452786#9 496253677#10 496253677#14 496253677#18 496253677#19 496253677#21 496253677#22"/>
    </vehicle>
    <vehicle id="1066" type="0" depart="57.82" departLane="free" departSpeed="max" fromTaz="18" toTaz="2">
        <route edges="160253722#1 159315422#0 31794904#3 496332196#0 496332196#1 496332199#0 259871063#0 307097147#0 307097147#3 536826453 496253687#1 303889712#0 303889712#1 303889712#2 303889712#5"/>
    </vehicle>
    <vehicle id="219" type="0" depart="58.13" departLane="free" departSpeed="max" fromTaz="12" toTaz="15">
        <route edges="-gneE5 496257360#4 496257361 315886538#0 gneE22 -562025614#0 561994814#0 561994814#1 -306997494 -297896463#3 -297896463#2 -297896463#1 -307097146 -259871063#1 -496332199#1 -496332196#1 -496332196#0 -31794904#6 -31794904#2"/>
    </vehicle>
    <vehicle id="536" type="0" depart="58.72" departLane="free" departSpeed="max" fromTaz="14" toTaz="2">
        <route edges="-228022792#1 72871344 72871329#2 72871329#3 72871329#4 72871329#5 436251058 159315419 496249898#1 297757243#0 259871063#0 307097147#0 307097147#3 536826453 496253687#1 303889712#0 303889712#1 303889712#2 303889712#5"/>
    </vehicle>
    <vehicle id="66" type="0" depart="59.13" departLane="free" departSpeed="max" fromTaz="1" toTaz="13">
        <route edges="-571719005#1 306997514#13 306997492#0 306997492#2 107538207#0 107538207#2 496253685 365719024#0 319713269#10 319713269#2 319713269#3 319713269#4 319713269#5 72871326#0 259871042#0 297757244#0 297757244#1 228022791 24452776 72871329#0 72871329#1 72871329#2 72871334#0 72871334#1"/>
    </vehicle>
    <vehicle id="942" type="0" depart="59.29" departLane="free" departSpeed="max" fromTaz="18" toTaz="10">
        <route edges="-160913587 gneE29 24452786#0 24452786#3 24452786#7"/>
    </vehicle>
    <vehicle id="774" type="0" depart="62.04" departLane="free" departSpeed="max" fromTaz="16" toTaz="15">
        <route edges="152086640#0 -159315422#10 -159315422#7 -159315422#5 -41389169#13"/>
    </vehicle>
    <vehicle id="863" type="0" depart="62.33" departLane="free" departSpeed="max" fromTaz="16" toTaz="6">
        <route edges="31794904#1 -159315422#0 160253722#4 286094874#0 286094877 286847289#0 24452783#0 496253679#0 496253680#3 496253680#5 496339476#0"/>
    </vehicle>
    <vehicle id="1270" type="0" depart="62.83" departLane="free" departSpeed="max" fromTaz="3" toTaz="15">
        <route edges="-161010072#5 -161010072#2 -161010065#9 -24452783#5 -286847289#0 286094881#0 -306997498#3 -159279412 -41389183#2 -496332200#7 -496332200#4 -496332200#1 -41389169#14 159315422#5 159315422#6 71285598#7"/>
    </vehicle>
    <vehicle id="1122" type="0" depart="63.86" departLane="free" departSpeed="max" fromTaz="18" toTaz="6">
        <route edges="-160913587 gneE29 27067577#0 27067577#3 496253680#0 496253680#3 496253680#5 496339476#0"/>
    </vehicle>
    <vehicle id="1775" type="0" depart="64.36" departLane="free" departSpeed="max" fromTaz="9" toTaz="11">
        <route edges="496253674#0 -24452779#1 227913938#7 -274022921#6 -274022921#4 -274022921#3 -274022921#1 -496332201#4 -279032146#4 -279032146#2 319713269#4 319713269#5 319713269#7 31794905#0 307097146 297896463#0 297896463#2 297896463#3 306997494 -561994814#3 -561994814#0 562025614#0 gneE21 228022818#0 315886539#0 -496257360#5 gneE5"/>
    </vehicle>
    <vehicle id="1316" type="0" depart="66.34" departLane="free" departSpeed="max" fromTaz="3" toTaz="8">
        <route edges="-496332203#2 546374573#0 -161010072#2 108037210#4 286847309#0 286847309#2 286847309#4 286847309#8 286847309#10"/>
    </vehicle>
    <vehicle id="388" type="0" depart="67.67" departLane="free" departSpeed="max" fromTaz="12" toTaz="8">
        <route edges="297757252#0 496257361 315886538#0 142297097#0 315886540#0 259871068#0 298812493#0 298812493#1 496493914 38367679#0 38367679#2 108037210#0 108037210#1 108037210#4 286847309#0 286847309#2 286847309#4 286847309#8 286847309#10"/>
    </vehicle>
    <vehicle id="1908" type="0" depart="69.13" departLane="free" departSpeed="max" fromTaz="9" toTaz="2">
        <route edges="499302825#0 496253677#1 496253677#5 -24452786#6 -24452786#2 27067577#0 27067577#3 -24452782#3 286094881#0 24452804 -521058769#1 250710098#0 250710098#1 250710098#2 496493902 303889712#0 303889712#1 303889712#2 306997514#7 306997514#10 571719005#0"/>
    </vehicle>
    <vehicle id="555" type="0" depart="71.56" departLane="free" departSpeed="max" fromTaz="14" toTaz="4">
        <route edges="-72871334#3 -72871334#0 72871329#3 72871329#4 72871329#5 436251058 159315419 496249898#1 297757243#0 259871043#0 319713269#7 319713269#8 319713269#10 107538204#0 250710092#0 496253684#5 -552358549#4 38367679#0 38367679#2 108037210#0 158854903#0 496332203#0"/>
    </vehicle>
    <vehicle id="309" type="0" depart="72.65" departLane="free" departSpeed="max" fromTaz="12" toTaz="4">
        <route edges="162442431#0 162442431#4 306997514#0 306997514#7 306997514#10 306997514#13 306997492#0 161036803#0 161036803#1 545315834#1 545315834#2 496332204#0 496332204#1 496332203#0"/>
    </vehicle>
    <vehicle id="711" type="0" depart="76.66" departLane="free" departSpeed="max" fromTaz="16" toTaz="11">
        <route edges="-71285598#7 -71285598#6 -71285598#5 -496249903#1 152086640#5 297757247#0 297757247#3 297896463#0 297896463#2 297896463#3 306997494 -561994814#3 -561994814#0 562025614#0 gneE21 228022818#0 315886539#0 -496257360#5 -496257360#3 306997515#4"/>
    </vehicle>
    <vehicle id="292" type="0" depart="77.19" departLane="free" departSpeed="max" fromTaz="12" toTaz="2">
        <route edges="158995079#0 -561994814#3 -561994814#0 562025614#0 gneE21 gneE23 497943357#0 303889712#1 303889712#2 306997514#7 306997514#10 306997514#13 306997493#0"/>
    </vehicle>
    <vehicle id="382" type="0" depart="77.35" departLane="free" departSpeed="max" fromTaz="12" toTaz="8">
        <route edges="162442431#0 162442431#4 -315886536#3 497943357#0 -303889712#0 259871068#0 107538207#0 107538207#2 496253684#0 496253684#5 496253682#0 -286847289#0 286094878#0 24452782#4 24452782#6 24452782#7"/>
    </vehicle>
    <vehicle id="11" type="0" depart="77.42" departLane="free" departSpeed="max" fromTaz="1" toTaz="10">
        <route edges="158782352#4 306997513#5 259871045#1 259871045#4 496493919#0 496253684#5 496253682#0 -286847289#0 -286094877 286094870#0 286094870#3 -27067577#2 24452786#0 24452786#3 -496253677#9 -496253677#2 -499302825#3"/>
    </vehicle>
    <vehicle id="1320" type="0" depart="78.56" departLane="free" departSpeed="max" fromTaz="3" toTaz="8">
        <route edges="302240826#4 302240826#7 -496253672 24452783#0 496253679#0 gneE27 521131212#0 521131212#1 521131212#2"/>
    </vehicle>
    <vehicle id="566" type="0" depart="78.90" departLane="free" departSpeed="max" fromTaz="14" toTaz="4">
        <route edges="-72871334#3 -72871334#0 72871329#3 72871329#4 72871329#5 436251058 159315419 496249898#1 297757243#0 259871043#0 319713269#7 319713269#8 319713269#10 107538204#0 250710092#0 496253684#5 -552358549#4 38367679#0 38367679#2 108037210#0 158854903#0 546374573#0 161010072#3"/>
    </vehicle>
    <vehicle id="915" type="0" depart="82.05" departLane="free" departSpeed="max" fromTaz="16" toTaz="8">
        <route edges="159315419 496249898#1 297757243#0 259871043#0 319713269#7 319713269#8 319713269#10 107538204#0 -24452804 -286094881#1 286094878#0 24452782#4 24452782#6 24452782#7"/>
    </vehicle>
    <vehicle id="1169" type="0" depart="83.31" departLane="free" departSpeed="max" fromTaz="18" toTaz="8">
        <route edges="160253722#1 160253722#4 286094874#0 286094877 286847289#0 24452783#0 496253679#0 gneE27 521131212#0 41963902#0 286847309#8 286847309#10"/>
    </vehicle>
    <vehicle id="944" type="0" depart="84.22" departLane="free" departSpeed="max" fromTaz="18" toTaz="10">
        <route edges="160253722#1 160253722#4 274022921#0 274022921#2 274022921#4 gneE29 24452786#0 24452786#3 24452786#7"/>
    </vehicle>
    <vehicle id="1081" type="0" depart="84.62" departLane="free" departSpeed="max" fromTaz="18" toTaz="2">
        <route edges="-160913587 -274022921#4 -274022921#3 -274022921#1 -496332201#4 -279032146#4 -279032146#2 319713269#4 319713269#5 319713269#7 319713269#8 107538158#0 250710098#0 250710098#1 250710098#2 279369086#0 279369086#1 279369086#2 306997493#0"/>
    </vehicle>
    <vehicle id="16" type="0" depart="84.73" departLane="free" departSpeed="max" fromTaz="1" toTaz="10">
        <route edges="158895309#2 306997492#0 306997492#2 107538207#0 107538207#2 496253685 365719024#0 319713269#10 319713269#2 24430153#0 306997497#0 286094870#0 286094870#3 -27067577#2 24452786#0 24452786#3 24452786#7"/>
    </vehicle>
    <vehicle id="777" type="0" depart="84.77" departLane="free" departSpeed="max" fromTaz="16" toTaz="15">
        <route edges="31794904#1 159315422#1 41389169#14 496332200#0 160321090 -71285598#5 -496249903#1 -496249903#0 297757244#1"/>
    </vehicle>
    <vehicle id="810" type="0" depart="85.87" departLane="free" departSpeed="max" fromTaz="16" toTaz="2">
        <route edges="-71285598#7 -71285598#6 -71285598#5 -71285598#4 259871043#0 319713269#7 319713269#8 107538158#0 250710098#0 250710098#1 250710098#2 279369086#0 279369086#1 279369086#2 306997513#1 -158782352#5"/>
    </vehicle>
    <vehicle id="315" type="0" depart="87.06" departLane="free" departSpeed="max" fromTaz="12" toTaz="4">
        <route edges="297757252#0 496257361 315886538#0 142297097#0 315886540#0 259871068#0 298812493#0 298812493#1 496493914 38367679#0 38367679#2 108037210#0 158854903#0 546374573#0 161010072#3"/>
    </vehicle>
    <vehicle id="928" type="0" depart="87.40" departLane="free" departSpeed="max" fromTaz="18" toTaz="10">
        <route edges="160253722#1 159315422#0 -31794904#2 -31794904#0 107538178#1 286852568 -304476025#12 -304476025#11 -304476025#6 -304476025#3 -227913938#10 24452779#0 -496253674#1"/>
    </vehicle>
    <vehicle id="1891" type="0" depart="89.17" departLane="free" departSpeed="max" fromTaz="9" toTaz="2">
        <route edges="496253674#0 -24452779#1 227913938#7 -274022921#6 -274022921#4 -274022921#3 -274022921#1 -496332201#4 -279032146#4 -279032146#2 319713269#4 319713269#5 319713269#7 31794905#0 307097146 297896463#0 297896463#2 297896463#3 306997494 -561994814#3 -561994814#0 562025614#0 gneE21 gneE23 315886536#1 306997496#0"/>
    </vehicle>
    <vehicle id="433" type="0" depart="89.43" departLane="free" departSpeed="max" fromTaz="14" toTaz="10">
        <route edges="-228022792#1 72871344 72871329#2 72871329#3 72871329#4 72871329#5 72871331 158895303#0 307096544#0 307096544#2 307096544#4 160253727 107538178#0 107538178#1 286852568 -304476025#12 -304476025#11 -304476025#6 -304476025#3 -227913938#10 -227913938#6"/>
    </vehicle>
    <vehicle id="1470" type="0" depart="89.71" departLane="free" departSpeed="max" fromTaz="5" toTaz="6">
        <route edges="-41963902#10 -496339477#5 -496339477#2 496339476#0"/>
    </vehicle>
    <vehicle id="859" type="0" depart="91.49" departLane="free" departSpeed="max" fromTaz="16" toTaz="6">
        <route edges="31794904#1 -159315422#0 160253722#4 286094874#0 286094877 286847289#0 24452783#0 496253679#0 gneE27 -203481580#3 286847309#4 41963902#6 496339477#6 496253677#22"/>
    </vehicle>
    <vehicle id="486" type="0" depart="92.21" departLane="free" departSpeed="max" fromTaz="14" toTaz="15">
        <route edges="-228022792#1 72871344 72871329#2 72871329#3 72871329#4 72871329#5 72871331 158895303#0 152086640#0 -159315422#10 71285598#7"/>
    </vehicle>
    <vehicle id="1164" type="0" depart="92.40" departLane="free" departSpeed="max" fromTaz="18" toTaz="8">
        <route edges="-160913587 gneE29 24452786#0 24452786#3 496253677#10 496253677#14 24452782#7"/>
    </vehicle>
    <vehicle id="184" type="0" depart="93.64" departLane="free" departSpeed="max" fromTaz="12" toTaz="10">
        <route edges="297757252#0 496257361 315886538#0 142297097#0 315886540#0 259871068#0 107538207#0 107538207#2 496253685 365719024#0 319713269#10 319713269#2 24430153#0 306997497#0 286094870#0 286094870#3 -27067577#2 24452786#0 24452786#3 -496253677#9 -496253677#2 -499302825#3"/>
    </vehicle>
    <vehicle id="121" type="0" depart="94.28" departLane="free" departSpeed="max" fromTaz="1" toTaz="4">
        <route edges="-306997496#1 306997514#0 306997514#7 306997514#10 306997514#13 306997492#0 161036803#0 161036803#1 545315834#1 545315834#2 41389166#5"/>
    </vehicle>
    <vehicle id="118" type="0" depart="94.92" departLane="free" departSpeed="max" fromTaz="1" toTaz="4">
        <route edges="158782352#4 306997513#5 259871045#1 545315834#1 545315834#2 496332204#0 496332204#1 496332203#0"/>
    </vehicle>
    <vehicle id="636" type="0" depart="95.02" departLane="free" departSpeed="max" fromTaz="14" toTaz="8">
        <route edges="81509011#0 228022808#4 228022808#6 286841509#0 286841509#3 -307097146 -31794905#4 319713269#8 319713269#10 107538204#0 -24452804 -286094881#1 286094878#0 24452782#4 24452782#6 24452782#7"/>
    </vehicle>
    <vehicle id="398" type="0" depart="96.57" departLane="free" departSpeed="max" fromTaz="12" toTaz="8">
        <route edges="162442431#0 162442431#4 -315886536#3 497943357#0 -303889712#0 259871068#0 107538207#0 107538207#2 496253685 365719024#0 319713269#10 319713269#2 24430153#0 306997497#0 286094870#0 286094870#3 286094870#7 286094870#11 286094870#15"/>
    </vehicle>
    <vehicle id="1917" type="0" depart="97.74" departLane="free" departSpeed="max" fromTaz="9" toTaz="2">
        <route edges="496253674#0 -24452779#1 227913938#7 -274022921#6 -274022921#4 -274022921#3 -274022921#1 -496332201#4 -279032146#4 -279032146#2 319713269#4 319713269#5 319713269#7 31794905#0 307097147#0 307097147#3 536826453 496253687#1 303889712#0 303889712#1 303889712#2 306997514#7 306997514#10 571719005#0"/>
    </vehicle>
    <vehicle id="172" type="0" depart="97.77" departLane="free" departSpeed="max" fromTaz="12" toTaz="10">
        <route edges="158995079#0 -306997494 111343195#0 111343195#3 365719024#0 319713269#10 319713269#2 319713269#3 279032146#0 279032146#3 496332201#0 274022921#0 274022921#2 274022921#4 274022921#5 -227913938#10 24452779#0 -496253674#1"/>
    </vehicle>
    <vehicle id="671" type="0" depart="99.15" departLane="free" departSpeed="max" fromTaz="16" toTaz="10">
        <route edges="159315419 496249903#0 496249903#1 71285598#5 -160321090 -496332200#1 -41389169#14 -159315422#4 -31794904#2 -31794904#0 107538178#1 286852568 -304476025#12 -304476025#11 -304476025#6 -304476025#3 -227913938#10 -227913938#6"/>
    </vehicle>
    <vehicle id="1567" type="0" depart="99.87" departLane="free" departSpeed="max" fromTaz="7" toTaz="13">