<?xml version="1.0" encoding="UTF-8"?>

<!-- generated on 2023-03-31 10:08:45 by Eclipse SUMO duarouter Version 1.14.0
<configuration xmlns:xsi="http://www.w3.org/2001/XMLSchema-instance" xsi:noNamespaceSchemaLocation="http://sumo.dlr.de/xsd/duarouterConfiguration.xsd">

    <input>
        <net-file value="Tainan.net.xml"/>
        <additional-files value="vtype.xml"/>
        <route-files value="od_file.odtrips.xml"/>
    </input>

    <output>
        <output-file value="rou1/od_route_file.odtrips27.rou.xml"/>
    </output>

</configuration>
-->

<routes xmlns:xsi="http://www.w3.org/2001/XMLSchema-instance" xsi:noNamespaceSchemaLocation="http://sumo.dlr.de/xsd/routes_file.xsd">
    <vType id="0" speedFactor="normc(0.95,0.10,0.60,1.50)"/>
    <vehicle id="1042" type="0" depart="0.82" departLane="free" departSpeed="max" fromTaz="18" toTaz="17">
        <route edges="160253722#1 159315422#0 31794904#3 496332197#0 -160253722#7 -160253722#3"/>
    </vehicle>
    <vehicle id="1861" type="0" depart="1.37" departLane="free" departSpeed="max" fromTaz="9" toTaz="17">
        <route edges="159307912 -496253677#2 -496253677#0 -24452779#1 227913938#7 -274022921#6 -274022921#4 -274022921#3 -274022921#1 -160253722#7 -160253722#3"/>
    </vehicle>
    <vehicle id="73" type="0" depart="2.10" departLane="free" departSpeed="max" fromTaz="1" toTaz="13">
        <route edges="158895309#2 306997492#0 306997492#2 107538207#0 107538207#2 496253685 365719024#0 319713269#10 319713269#2 319713269#3 319713269#4 319713269#5 72871326#0 259871042#0 297757244#0 297757244#1 228022791 24452776 72871329#0 286847288#0 228022792#0"/>
    </vehicle>
    <vehicle id="1120" type="0" depart="3.44" departLane="free" departSpeed="max" fromTaz="18" toTaz="6">
        <route edges="-160913587 gneE29 24452786#0 504514704#0 504514704#5 -203481580#7 521131212#0 41963902#0 41963902#6 41963902#7"/>
    </vehicle>
    <vehicle id="1777" type="0" depart="4.77" departLane="free" departSpeed="max" fromTaz="9" toTaz="11">
        <route edges="159307912 496253677#5 -24452786#6 -24452786#2 27067577#0 -286094870#6 -286094870#2 -306997497#2 -24430153#1 319713269#3 319713269#4 319713269#5 319713269#7 31794905#0 307097146 297896463#0 297896463#2 297896463#3 306997494 -561994814#3 -561994814#0 562025614#0 gneE21 228022818#0 315886539#0 -496257360#5 gneE5"/>
    </vehicle>
    <vehicle id="1772" type="0" depart="5.25" departLane="free" departSpeed="max" fromTaz="9" toTaz="11">
        <route edges="-24452786#9 -24452786#6 -24452786#2 27067577#0 -286094870#6 -286094870#2 -306997497#2 -24430153#1 319713269#3 319713269#4 319713269#5 319713269#7 31794905#0 307097146 297896463#0 297896463#2 297896463#3 306997494 -561994814#3 -561994814#0 562025614#0 gneE21 228022818#0 315886539#0 -496257360#5 -496257360#3 306997515#4"/>
    </vehicle>
    <vehicle id="1353" type="0" depart="5.56" departLane="free" departSpeed="max" fromTaz="5" toTaz="10">
        <route edges="-41963902#10 -41963902#6 286847309#8 -496253677#19 -496253677#18 -496253677#17 -496253677#13 -496253677#9 -496253677#2 -499302825#3"/>
    </vehicle>
    <vehicle id="311" type="0" depart="6.27" departLane="free" departSpeed="max" fromTaz="12" toTaz="4">
        <route edges="-gneE5 161036801#7 497943357#0 497943357#3 497943357#5 161036803#0 161036803#1 545315834#1 545315834#2 496332204#0 496332204#1 496332203#0"/>
    </vehicle>
    <vehicle id="1086" type="0" depart="6.68" departLane="free" departSpeed="max" fromTaz="18" toTaz="4">
        <route edges="160253722#1 160253722#4 286094874#0 286094877 286847289#0 286847289#1 107538164#0 496332204#1 496332203#0"/>
    </vehicle>
    <vehicle id="1559" type="0" depart="6.87" departLane="free" departSpeed="max" fromTaz="7" toTaz="13">
        <route edges="-24452782#8 -24452782#6 -24452782#5 -24452782#3 286094881#0 24452804 -521058769#1 -111343195#5 -111343195#2 -297896463#3 -297896463#2 -297896463#1 -286841509#4 -286841509#2 -279365144#3"/>
    </vehicle>
    <vehicle id="736" type="0" depart="8.72" departLane="free" departSpeed="max" fromTaz="16" toTaz="13">
        <route edges="31794904#1 31794904#3 496332196#0 496332196#1 496332199#0 259871063#0 307097146 -286841509#4 -286841509#2 -279365144#3"/>
    </vehicle>
    <vehicle id="1475" type="0" depart="8.83" departLane="free" departSpeed="max" fromTaz="5" toTaz="8">
        <route edges="-496339475#2 297757248#0 -496253680#6 286847309#2 203481580#2 521131212#0 521131212#1 -496253677#18 24452782#7"/>
    </vehicle>
    <vehicle id="922" type="0" depart="10.78" departLane="free" departSpeed="max" fromTaz="18" toTaz="10">
        <route edges="-160913587 274022921#5 -227913938#10 24452779#0 496253677#0 -499302825#3"/>
    </vehicle>
    <vehicle id="1851" type="0" depart="13.54" departLane="free" departSpeed="max" fromTaz="9" toTaz="15">
        <route edges="227913938#0 227913938#7 304476025#0 304476025#4 304476025#7 304476025#12 160253726 41389178 107538178#0 107538178#1 160253722#0 160253722#1 159315422#0 -31794904#2"/>
    </vehicle>
    <vehicle id="778" type="0" depart="13.57" departLane="free" departSpeed="max" fromTaz="16" toTaz="17">
        <route edges="159315419 496249903#0 496249903#1 71285598#5 -160321090 496332200#2 41389173#0 496332197#0 274022921#0 274022921#2 274022921#4 160913587"/>
    </vehicle>
    <vehicle id="67" type="0" depart="14.13" departLane="free" departSpeed="max" fromTaz="1" toTaz="13">
        <route edges="158782352#4 306997513#5 259871045#1 259871045#4 496493919#0 496493919#2 -521058769#1 -111343195#5 -111343195#2 -297896463#3 -297896463#2 -297896463#1 -286841509#4 -286841509#2 306974310#0 306974310#1 -81509011#2"/>
    </vehicle>
    <vehicle id="475" type="0" depart="14.78" departLane="free" departSpeed="max" fromTaz="14" toTaz="15">
        <route edges="-228022792#1 72871344 72871329#2 72871329#3 27067581 228022808#0 -81509012#2 297757244#1"/>
    </vehicle>
    <vehicle id="668" type="0" depart="15.32" departLane="free" departSpeed="max" fromTaz="16" toTaz="10">
        <route edges="31794904#1 -159315422#0 160253722#4 274022921#0 274022921#2 274022921#4 gneE29 24452786#0 24452786#3 24452786#7"/>
    </vehicle>
    <vehicle id="253" type="0" depart="16.54" departLane="free" departSpeed="max" fromTaz="12" toTaz="17">
        <route edges="162442431#0 496257360#1 496257360#4 496257361 315886538#0 gneE22 -562025614#0 561994814#0 561994814#1 -306997494 -297896463#3 -297896463#2 -297896463#1 -307097146 -259871063#1 -496332199#1 -496332196#1 -496332196#0 -31794904#6 -159315422#0 -160253722#3"/>
    </vehicle>
    <vehicle id="1124" type="0" depart="16.60" departLane="free" departSpeed="max" fromTaz="18" toTaz="6">
        <route edges="-160913587 gneE29 27067577#0 27067577#3 496253680#0 496253680#3 228022815#6 286847301#0 496339475#0"/>
    </vehicle>
    <vehicle id="824" type="0" depart="18.28" departLane="free" departSpeed="max" fromTaz="16" toTaz="4">
        <route edges="41389169#12 41389169#14 496332200#0 496332200#2 496332200#5 41389183#0 159279412 306997498#0 -286361759#1 -552358549#4 38367679#0 41389166#0 496332204#0 -302240826#6"/>
    </vehicle>
    <vehicle id="584" type="0" depart="18.34" departLane="free" departSpeed="max" fromTaz="14" toTaz="4">
        <route edges="-72871334#3 -72871334#0 72871329#3 72871329#4 72871329#5 436251058 159315419 496249898#1 297757243#0 259871043#0 319713269#7 319713269#8 319713269#10 107538204#0 250710092#0 496253684#5 -552358549#4 38367679#0 38367679#2 108037210#0 158854903#0 546374573#0 161010072#3"/>
    </vehicle>
    <vehicle id="1493" type="0" depart="18.50" departLane="free" departSpeed="max" fromTaz="5" toTaz="8">
        <route edges="-496339475#2 297757248#0 -496253680#6 286847309#2 286847309#4 286847309#8 286847309#10"/>
    </vehicle>
    <vehicle id="145" type="0" depart="18.51" departLane="free" departSpeed="max" fromTaz="1" toTaz="8">
        <route edges="-306997496#1 306997514#0 -303889712#3 -303889712#1 -303889712#0 259871068#0 298812493#0 298812493#1 496493914 38367679#0 38367679#2 108037210#0 108037210#1 108037210#4 286847309#0 286847309#2 286847309#4 286847309#8 286847309#10"/>
    </vehicle>
    <vehicle id="983" type="0" depart="21.42" departLane="free" departSpeed="max" fromTaz="18" toTaz="11">
        <route edges="160253722#1 159315422#0 31794904#3 496332196#0 496332196#1 496332199#0 259871063#0 307097146 297896463#0 297896463#2 -158783758#8 -158783758#6"/>
    </vehicle>
    <vehicle id="600" type="0" depart="21.69" departLane="free" departSpeed="max" fromTaz="14" toTaz="6">
        <route edges="-556031052#2 -81509012#2 496249898#1 297757243#0 259871043#0 319713269#7 319713269#8 319713269#10 107538204#0 -24452804 -286094881#1 286094878#0 496253680#0 gneE27 -203481580#3 286847309#4 41963902#6 496339477#6 496253677#22"/>
    </vehicle>
    <vehicle id="1014" type="0" depart="23.74" departLane="free" departSpeed="max" fromTaz="18" toTaz="13">
        <route edges="-160913587 -274022921#4 -274022921#3 -274022921#1 -496332197#5 -41389173#1 -496332200#4 -496332200#1 -41389169#14 159315422#5 159315446#1 -307096544#1 -496339496#3 24452776 72871329#0 72871329#1 72871329#2 72871334#0 72871334#1"/>
    </vehicle>
    <vehicle id="1302" type="0" depart="23.76" departLane="free" departSpeed="max" fromTaz="3" toTaz="4">
        <route edges="-496332203#2 -496332204#1 -302240826#6"/>
    </vehicle>
    <vehicle id="519" type="0" depart="24.51" departLane="free" departSpeed="max" fromTaz="14" toTaz="17">
        <route edges="81509011#0 306974310#2 306974310#3 -81509012#2 496249903#0 496249903#1 71285598#5 -160321090 496332200#2 41389173#0 496332197#0 274022921#0 274022921#2 274022921#4 160913587"/>
    </vehicle>
    <vehicle id="644" type="0" depart="24.61" departLane="free" departSpeed="max" fromTaz="14" toTaz="8">
        <route edges="-72871334#3 -72871334#0 72871329#3 72871329#4 72871329#5 436251058 159315419 496249898#1 297757243#0 259871043#0 319713269#7 319713269#8 319713269#10 107538204#0 -24452804 -286094881#1 286094878#0 24452782#4 -203481580#7 521131212#0 41963902#0 286847309#8 286847309#10"/>
    </vehicle>
    <vehicle id="1368" type="0" depart="25.23" departLane="free" departSpeed="max" fromTaz="5" toTaz="11">
        <route edges="-41963902#10 -496339477#5 -496339477#2 -496253680#6 228022815#6 286847307#0 286847307#2 286847310#0 496493917#0 250710099#0 250710099#3 496493902 259871069#0 315886537#0 228022818#0 315886539#0 315886539#2"/>
    </vehicle>
    <vehicle id="459" type="0" depart="26.77" departLane="free" departSpeed="max" fromTaz="14" toTaz="13">
        <route edges="-228022792#1 72871344 72871329#2 72871329#3 72871329#4 72871329#5 72871329#6 72871329#0 286847288#0 228022792#0"/>
    </vehicle>
    <vehicle id="358" type="0" depart="27.23" departLane="free" departSpeed="max" fromTaz="12" toTaz="6">
        <route edges="158995079#0 -561994814#3 41389167#0 554648350#0 496253684#0 496253684#5 496253682#0 24452783#0 496253679#0 gneE27 -203481580#3 286847309#4 41963902#6 496339477#6 496253677#22"/>
    </vehicle>
    <vehicle id="1019" type="0" depart="27.26" departLane="free" departSpeed="max" fromTaz="18" toTaz="13">
        <route edges="160253722#1 159315422#0 159315422#1 159315422#5 159315446#1 -307096544#1 -496339496#3 24452776 72871329#0 72871329#1 72871329#2 72871334#0 72871334#1"/>
    </vehicle>
    <vehicle id="1356" type="0" depart="27.92" departLane="free" departSpeed="max" fromTaz="5" toTaz="10">
        <route edges="-41963902#10 -41963902#6 286847309#8 -496253677#19 -496253677#18 -496253677#17 -496253677#13 -496253677#9 -496253677#2 -496253677#0 -496253674#1"/>
    </vehicle>
    <vehicle id="783" type="0" depart="27.93" departLane="free" departSpeed="max" fromTaz="16" toTaz="17">
        <route edges="-71285598#7 -159315422#7 -159315446#0 496332200#0 496332200#2 41389173#0 496332197#0 274022921#0 274022921#2 274022921#4 160913587"/>
    </vehicle>
    <vehicle id="929" type="0" depart="28.92" departLane="free" departSpeed="max" fromTaz="18" toTaz="10">
        <route edges="-160913587 gneE29 24452786#0 24452786#3 24452786#7"/>
    </vehicle>
    <vehicle id="836" type="0" depart="30.24" departLane="free" departSpeed="max" fromTaz="16" toTaz="4">
        <route edges="-71285598#7 -159315422#7 -159315446#0 496332200#0 496332200#2 496332200#5 41389183#0 159279412 306997498#0 -286361759#1 -552358549#4 38367679#0 38367679#2 108037210#0 158854903#0 496332203#0"/>
    </vehicle>
    <vehicle id="1410" type="0" depart="30.27" departLane="free" departSpeed="max" fromTaz="5" toTaz="13">
        <route edges="-496339475#2 -286847301#1 286847307#0 -161010065#9 -24452783#5 -286847289#0 286094881#0 24452804 286847273#0 319713269#2 319713269#3 319713269#4 319713269#5 72871326#0 259871042#0 297757244#0 297757244#1 228022791 24452776 72871329#0 72871329#1 72871329#2 72871334#0 72871334#1"/>
    </vehicle>
    <vehicle id="805" type="0" depart="31.34" departLane="free" departSpeed="max" fromTaz="16" toTaz="2">
        <route edges="41389169#12 41389169#14 496332200#0 496332200#2 496332200#5 496332199#0 259871063#0 307097147#0 307097147#3 536826453 496253687#1 303889712#0 303889712#1 303889712#2 306997514#7 306997514#10 571719005#0"/>
    </vehicle>
    <vehicle id="1345" type="0" depart="32.77" departLane="free" departSpeed="max" fromTaz="5" toTaz="10">
        <route edges="-496339475#2 297757248#0 -496253680#6 286847309#2 203481580#2 203481580#4 -504514704#6 -504514704#4 24452786#3 -496253677#9 -496253677#2 -496253677#0 -496253674#1"/>
    </vehicle>
    <vehicle id="1183" type="0" depart="33.61" departLane="free" departSpeed="max" fromTaz="18" toTaz="8">
        <route edges="160253722#1 160253722#4 286094874#0 286094877 286847289#0 24452783#0 496253679#0 gneE27 521131212#0 41963902#0 286847309#8 286847309#10"/>
    </vehicle>
    <vehicle id="1966" type="0" depart="34.68" departLane="free" departSpeed="max" fromTaz="9" toTaz="6">
        <route edges="496253674#0 496253677#0 496253677#1 496253677#5 496253677#10 496253677#14 496253677#18 496253677#19 496253677#21 496253677#22"/>
    </vehicle>
    <vehicle id="1105" type="0" depart="35.66" departLane="free" departSpeed="max" fromTaz="18" toTaz="4">
        <route edges="-160913587 -274022921#4 -274022921#3 -274022921#1 286094874#0 286094877 286847289#0 286847289#1 107538164#0 -302240826#6"/>
    </vehicle>
    <vehicle id="69" type="0" depart="35.70" departLane="free" departSpeed="max" fromTaz="1" toTaz="13">
        <route edges="-571719005#1 306997514#13 306997492#0 -497943357#6 -497943357#4 -497943357#2 gneE24 228022818#0 315886539#0 315886539#2 279365155#0 279365155#1 279365155#2 279365155#3 279365155#4 279365155#5 496257364#0 496257364#1 -279365144#3"/>
    </vehicle>
    <vehicle id="1029" type="0" depart="35.89" departLane="free" departSpeed="max" fromTaz="18" toTaz="13">
        <route edges="-160913587 -274022921#4 -274022921#3 -274022921#1 -496332197#5 -41389173#1 -496332200#4 160321090 -71285598#5 -496249903#1 -496249903#0 81509012#1 228022808#2 228022808#3 -81509011#2"/>
    </vehicle>
    <vehicle id="567" type="0" depart="36.39" departLane="free" departSpeed="max" fromTaz="14" toTaz="4">
        <route edges="-556031052#2 -81509012#2 496249898#1 297757243#0 259871043#0 319713269#7 319713269#8 319713269#10 107538204#0 250710092#0 496253684#5 -552358549#4 38367679#0 41389166#0 496332204#0 -302240826#6"/>
    </vehicle>
    <vehicle id="1235" type="0" depart="36.62" departLane="free" departSpeed="max" fromTaz="3" toTaz="13">
        <route edges="-41389166#7 -545315834#2 -545315834#1 259871045#4 496493919#0 496493919#2 286847273#0 319713269#2 319713269#3 319713269#4 319713269#5 72871326#0 259871042#0 297757244#0 81509012#1 556031052#1"/>
    </vehicle>
    <vehicle id="1376" type="0" depart="36.78" departLane="free" departSpeed="max" fromTaz="5" toTaz="11">
        <route edges="-496339476#3 -496253680#6 -496253680#3 -496253680#2 -24452782#3 286094881#0 24452804 -521058769#1 -111343195#5 -111343195#2 -496493905#3 81357763#0 -158783758#6"/>
    </vehicle>
    <vehicle id="610" type="0" depart="40.39" departLane="free" departSpeed="max" fromTaz="14" toTaz="6">
        <route edges="-556031052#2 -81509012#2 496249898#1 297757243#0 259871043#0 319713269#7 319713269#8 319713269#10 107538204#0 -24452804 -286094881#1 286094878#0 496253680#0 gneE27 -203481580#3 286847309#4 41963902#6 41963902#7"/>
    </vehicle>
    <vehicle id="1765" type="0" depart="40.63" departLane="free" departSpeed="max" fromTaz="9" toTaz="11">
        <route edges="227913938#0 227913938#7 -274022921#6 -274022921#4 -274022921#3 -274022921#1 -496332201#4 -279032146#4 -279032146#2 319713269#4 319713269#5 319713269#7 31794905#0 307097146 297896463#0 297896463#2 297896463#3 306997494 -561994814#3 -561994814#0 562025614#0 gneE21 228022818#0 315886539#0 -496257360#5 gneE5"/>
    </vehicle>
    <vehicle id="1391" type="0" depart="41.03" departLane="free" departSpeed="max" fromTaz="5" toTaz="13">
        <route edges="-496339476#3 -496253680#6 -496253680#3 -496253680#2 -24452782#3 286094881#0 24452804 -521058769#1 -111343195#5 -111343195#2 -297896463#3 -297896463#2 -297896463#1 -286841509#4 -286841509#2 -279365144#3"/>
    </vehicle>
    <vehicle id="604" type="0" depart="42.73" departLane="free" departSpeed="max" fromTaz="14" toTaz="6">
        <route edges="-228022792#1 72871344 72871329#2 72871329#3 72871329#4 72871329#5 436251058 159315419 496249898#1 297757243#0 259871043#0 319713269#7 319713269#8 319713269#10 107538204#0 -24452804 -286094881#1 286094878#0 496253680#0 496253680#3 496253680#5 496339476#0"/>
    </vehicle>
    <vehicle id="1324" type="0" depart="43.27" departLane="free" departSpeed="max" fromTaz="3" toTaz="8">
        <route edges="-496332203#2 546374573#0 -161010072#2 108037210#4 286847309#0 286847309#2 203481580#2 521131212#0 521131212#1 -496253677#18 24452782#7"/>
    </vehicle>
    <vehicle id="3" type="0" depart="44.20" departLane="free" departSpeed="max" fromTaz="1" toTaz="10">
        <route edges="158782352#4 306997513#5 259871045#1 259871045#4 496493919#0 496253684#5 496253682#0 -286847289#0 -286094877 286094870#0 286094870#3 -27067577#2 24452786#0 24452786#3 -496253677#9 27067557#0"/>
    </vehicle>
    <vehicle id="839" type="0" depart="44.39" departLane="free" departSpeed="max" fromTaz="16" toTaz="4">
        <route edges="159315419 496249898#1 297757243#0 259871043#0 319713269#7 319713269#8 319713269#10 107538204#0 250710092#0 496253684#5 -552358549#4 38367679#0 41389166#0 41389166#5"/>
    </vehicle>
    <vehicle id="1393" type="0" depart="44.76" departLane="free" departSpeed="max" fromTaz="5" toTaz="13">
        <route edges="-496339476#3 -496253680#6 -496253680#3 -496253680#2 -24452782#3 286094881#0 24452804 286847273#0 319713269#2 319713269#3 319713269#4 319713269#5 72871326#0 259871042#0 297757244#0 297757244#1 228022791 24452776 72871329#0 72871329#1 72871329#2 72871334#0 72871334#1"/>
    </vehicle>
    <vehicle id="1842" type="0" depart="44.83" departLane="free" departSpeed="max" fromTaz="9" toTaz="15">
        <route edges="-24452786#9 -24452786#6 -24452786#2 gneE28 -274022921#4 -274022921#3 -274022921#1 -160253722#7 159315422#0 -31794904#2"/>
    </vehicle>
    <vehicle id="1944" type="0" depart="47.15" departLane="free" departSpeed="max" fromTaz="9" toTaz="4">
        <route edges="-24452786#9 -24452786#6 -24452786#2 27067577#0 27067577#3 496253680#0 -496253679#6 161010065#0 161010072#1 161010072#3"/>
    </vehicle>
    <vehicle id="825" type="0" depart="47.99" departLane="free" departSpeed="max" fromTaz="16" toTaz="4">
        <route edges="152086640#0 152086640#1 152086640#5 297757243#0 259871043#0 319713269#7 319713269#8 319713269#10 107538204#0 250710092#0 496253684#5 -552358549#4 38367679#0 38367679#2 108037210#0 158854903#0 546374573#0 161010072#3"/>
    </vehicle>
    <vehicle id="499" type="0" depart="48.75" departLane="free" departSpeed="max" fromTaz="14" toTaz="17">
        <route edges="-228022792#1 72871344 72871329#2 72871329#3 72871329#4 72871329#5 436251058 159315419 496249903#0 496249903#1 71285598#5 -160321090 496332200#2 41389173#0 496332197#0 274022921#0 274022921#2 274022921#4 160913587"/>
    </vehicle>
    <vehicle id="70" type="0" depart="49.26" departLane="free" departSpeed="max" fromTaz="1" toTaz="13">
        <route edges="-303889712#6 306997512#10 -315886536#3 gneE24 228022818#0 315886539#0 315886539#2 279365155#0 279365155#1 279365155#2 279365155#3 279365155#4 279365155#5 496257364#0 496257364#1 -279365144#3"/>
    </vehicle>
    <vehicle id="687" type="0" depart="50.70" departLane="free" departSpeed="max" fromTaz="16" toTaz="10">
        <route edges="-71285598#7 -159315422#7 -159315422#5 -159315422#4 -31794904#2 -31794904#0 107538178#1 286852568 -304476025#12 -304476025#11 -304476025#6 -304476025#3 -227913938#10 24452779#0 496253677#0 -499302825#3"/>
    </vehicle>
    <vehicle id="238" type="0" depart="51.96" departLane="free" departSpeed="max" fromTaz="12" toTaz="15">
        <route edges="158783758#2 158783758#7 -297896463#2 -297896463#1 -297757247#3 -297757247#2 -152086640#6 -152086640#4 -152086640#0"/>
    </vehicle>
    <vehicle id="1657" type="0" depart="52.61" departLane="free" departSpeed="max" fromTaz="7" toTaz="2">
        <route edges="228022815#0 228022815#2 228022815#4 228022815#5 228022815#6 286847307#0 286847307#2 286847310#0 496493917#0 250710099#0 250710099#3 496493902 303889712#0 303889712#1 303889712#2 306997514#7 306997514#10 571719005#0"/>
    </vehicle>
    <vehicle id="1106" type="0" depart="53.19" departLane="free" departSpeed="max" fromTaz="18" toTaz="4">
        <route edges="-160913587 -274022921#4 -274022921#3 -274022921#1 286094874#0 286094877 286847289#0 286847289#1 107538164#0 -302240826#6"/>
    </vehicle>
    <vehicle id="1570" type="0" depart="55.05" departLane="free" departSpeed="max" fromTaz="7" toTaz="13">
        <route edges="-24452782#8 -24452782#6 -24452782#5 -24452782#3 286094881#0 24452804 -521058769#1 -111343195#5 -111343195#2 -297896463#3 -297896463#2 -297896463#1 -286841509#4 -286841509#2 306974310#0 306974310#1 -81509011#2"/>
    </vehicle>
    <vehicle id="20" type="0" depart="55.33" departLane="free" departSpeed="max" fromTaz="1" toTaz="10">
        <route edges="-303889712#6 -303889712#3 -303889712#1 -303889712#0 259871068#0 107538207#0 107538207#2 496253685 365719024#0 319713269#10 319713269#2 319713269#3 279032146#0 279032146#3 496332201#0 274022921#0 274022921#2 274022921#4 274022921#5 -227913938#10 -227913938#6"/>
    </vehicle>
    <vehicle id="1596" type="0" depart="55.74" departLane="free" departSpeed="max" fromTaz="7" toTaz="15">
        <route edges="228022815#0 228022815#2 -41963902#4 -521131212#0 203481580#4 -24452782#5 -24452782#3 286094881#0 24452804 286847273#0 319713269#2 319713269#3 319713269#4 319713269#5 72871326#0 259871042#0 297757244#0 297757244#1"/>
    </vehicle>
    <vehicle id="1841" type="0" depart="55.83" departLane="free" departSpeed="max" fromTaz="9" toTaz="15">
        <route edges="-24452786#9 -24452786#6 -24452786#2 gneE28 -274022921#4 -274022921#3 -274022921#1 -496332197#5 -41389173#1 -496332200#4 -496332200#1 -41389169#14 159315422#5 159315422#6 71285598#7"/>
    </vehicle>
    <vehicle id="1912" type="0" depart="55.97" departLane="free" departSpeed="max" fromTaz="9" toTaz="2">
        <route edges="159307912 496253677#5 -24452786#6 -24452786#2 27067577#0 27067577#3 -24452782#3 286094881#0 24452804 -521058769#1 250710098#0 250710098#1 250710098#2 496493902 303889712#0 303889712#1 303889712#2 303889712#5"/>
    </vehicle>
    <vehicle id="1210" type="0" depart="56.09" departLane="free" departSpeed="max" fromTaz="3" toTaz="11">
        <route edges="302240826#4 -496332204#0 -545315834#2 -545315834#1 259871045#4 496493919#0 -496253684#3 -554648350#1 -562025613 561994814#1 -158995079#1"/>
    </vehicle>
    <vehicle id="153" type="0" depart="57.11" departLane="free" departSpeed="max" fromTaz="1" toTaz="8">
        <route edges="-303889712#6 -303889712#3 -303889712#1 -303889712#0 259871068#0 298812493#0 298812493#1 496493914 38367679#0 38367679#2 108037210#0 108037210#1 108037210#4 286847309#0 286847309#2 286847309#4 286847309#8 286847309#10"/>
    </vehicle>
    <vehicle id="416" type="0" depart="57.99" departLane="free" departSpeed="max" fromTaz="14" toTaz="10">
        <route edges="-72871334#3 -72871334#0 72871329#3 72871329#4 72871329#5 72871331 158895303#0 307096544#0 307096544#2 307096544#4 160253727 107538178#0 107538178#1 286852568 -304476025#12 -304476025#11 -304476025#6 -304476025#3 -227913938#10 -227913938#6"/>
    </vehicle>
    <vehicle id="1800" type="0" depart="58.23" departLane="free" departSpeed="max" fromTaz="9" toTaz="13">
        <route edges="227913938#0 227913938#7 304476025#0 304476025#4 304476025#7 304476025#12 160253726 41389178 -160253727 -307096544#5 -307096544#3 -307096544#1 -496339496#3 24452776 72871329#0 72871329#1 72871329#2 72871329#3 27067581 228022808#0 556031052#1"/>
    </vehicle>
    <vehicle id="817" type="0" depart="58.57" departLane="free" departSpeed="max" fromTaz="16" toTaz="4">
        <route edges="-71285598#7 -159315422#7 -159315446#0 496332200#0 496332200#2 496332200#5 41389183#0 159279412 306997498#0 -286361759#1 -552358549#4 38367679#0 38367679#2 108037210#0 158854903#0 496332203#0"/>
    </vehicle>
    <vehicle id="837" type="0" depart="58.83" departLane="free" departSpeed="max" fromTaz="16" toTaz="4">
        <route edges="159315419 496249898#1 297757243#0 259871043#0 319713269#7 319713269#8 319713269#10 107538204#0 250710092#0 496253684#5 -552358549#4 38367679#0 41389166#0 496332204#0 -302240826#6"/>
    </vehicle>
    <vehicle id="838" type="0" depart="59.24" departLane="free" departSpeed="max" fromTaz="16" toTaz="4">
        <route edges="-71285598#7 -159315422#7 -159315446#0 496332200#0 496332200#2 496332200#5 41389183#0 159279412 306997498#0 -286361759#1 -552358549#4 38367679#0 38367679#2 108037210#0 158854903#0 496332203#0"/>
    </vehicle>
    <vehicle id="1631" type="0" depart="59.83" departLane="free" departSpeed="max" fromTaz="7" toTaz="17">
        <route edges="228022815#0 -496253677#19 -496253677#18 -496253677#17 -286094870#14 -286094870#10 -286094870#6 -286094870#2 -286094874#4 -160253722#7 -160253722#3"/>
    </vehicle>
    <vehicle id="1630" type="0" depart="60.00" departLane="free" departSpeed="max" fromTaz="7" toTaz="17">
        <route edges="228022815#0 -496253677#19 -496253677#18 -496253677#17 -286094870#14 -286094870#10 -286094870#6 -286094870#2 -286094874#4 -160253722#7 -160253722#3"/>
    </vehicle>
    <vehicle id="1061" type="0" depart="61.20" departLane="free" departSpeed="max" fromTaz="18" toTaz="2">
        <route edges="-160913587 -274022921#4 -274022921#3 -274022921#1 -496332201#4 -279032146#4 -279032146#2 319713269#4 319713269#5 319713269#7 31794905#0 307097147#0 307097147#3 536826453 496253687#1 303889712#0 303889712#1 303889712#2 306997514#7 306997514#10 571719005#0"/>
    </vehicle>
    <vehicle id="1348" type="0" depart="61.35" departLane="free" departSpeed="max" fromTaz="5" toTaz="10">
        <route edges="-496339476#3 -496253680#6 286847309#2 203481580#2 203481580#4 -504514704#6 -504514704#4 24452786#3 -496253677#9 -496253677#2 -499302825#3"/>
    </vehicle>
    <vehicle id="1261" type="0" depart="61.62" departLane="free" departSpeed="max" fromTaz="3" toTaz="15">
        <route edges="302240826#4 302240826#7 -496253672 -286847289#0 286094881#0 -306997498#3 -159279412 -41389183#2 -496332200#7 -496332200#4 -496332200#1 -41389169#14 -41389169#13"/>
    </vehicle>
    <vehicle id="214" type="0" depart="62.09" departLane="free" departSpeed="max" fromTaz="12" toTaz="13">
        <route edges="-gneE5 496257360#4 315886539#2 279365155#0 279365155#1 279365155#2 279365155#3 279365155#4 279365155#5 496257364#0 496257364#1 306974310#0 306974310#1 306974310#2 306974310#3 306974310#4 228022810 72871329#5 72871329#6 72871329#0 72871329#1 72871329#2 72871334#0 72871334#1"/>
    </vehicle>
    <vehicle id="1171" type="0" depart="62.29" departLane="free" departSpeed="max" fromTaz="18" toTaz="8">
        <route edges="-160913587 gneE29 24452786#0 24452786#3 496253677#10 496253677#14 24452782#7"/>
    </vehicle>
    <vehicle id="387" type="0" depart="62.59" departLane="free" departSpeed="max" fromTaz="12" toTaz="8">
        <route edges="-gneE5 496257360#4 496257361 315886538#0 142297097#0 315886540#0 259871068#0 107538207#0 107538207#2 496253685 365719024#0 319713269#10 319713269#2 24430153#0 306997497#0 286094870#0 286094870#3 286094870#7 286094870#11 286094870#15"/>
    </vehicle>
    <vehicle id="1666" type="0" depart="62.68" departLane="free" departSpeed="max" fromTaz="7" toTaz="2">
        <route edges="228022815#0 228022815#2 228022815#4 228022815#5 228022815#6 286847307#0 286847307#2 286847310#0 496493917#0 250710099#0 250710099#3 496493902 303889712#0 303889712#1 303889712#2 306997514#7 306997514#10 571719005#0"/>
    </vehicle>
    <vehicle id="863" type="0" depart="64.18" departLane="free" departSpeed="max" fromTaz="16" toTaz="6">
        <route edges="152086640#0 152086640#1 152086640#5 297757243#0 259871043#0 319713269#7 319713269#8 319713269#10 107538204#0 -24452804 -286094881#1 286094878#0 496253680#0 496253680#3 496253680#5 496339476#0"/>
    </vehicle>
    <vehicle id="244" type="0" depart="66.01" departLane="free" departSpeed="max" fromTaz="12" toTaz="15">
        <route edges="-gneE5 496257360#4 496257361 315886538#0 gneE22 -562025614#0 561994814#0 561994814#1 -306997494 -297896463#3 -297896463#2 -297896463#1 -297757247#3 -297757247#2 297757244#0 297757244#1"/>
    </vehicle>
    <vehicle id="137" type="0" depart="67.19" departLane="free" departSpeed="max" fromTaz="1" toTaz="8">
        <route edges="158782352#4 306997513#5 259871045#1 259871045#4 496493919#0 496253684#5 496253682#0 -286847289#0 -286094877 286094870#0 286094870#3 286094870#7 286094870#11 286094870#15"/>
    </vehicle>