<?xml version="1.0" encoding="UTF-8"?>

<!-- generated on 2023-03-31 10:08:19 by Eclipse SUMO duarouter Version 1.14.0
<configuration xmlns:xsi="http://www.w3.org/2001/XMLSchema-instance" xsi:noNamespaceSchemaLocation="http://sumo.dlr.de/xsd/duarouterConfiguration.xsd">

    <input>
        <net-file value="Tainan.net.xml"/>
        <additional-files value="vtype.xml"/>
        <route-files value="od_file.odtrips.xml"/>
    </input>

    <output>
        <output-file value="rou1/od_route_file.odtrips11.rou.xml"/>
    </output>

</configuration>
-->

<routes xmlns:xsi="http://www.w3.org/2001/XMLSchema-instance" xsi:noNamespaceSchemaLocation="http://sumo.dlr.de/xsd/routes_file.xsd">
    <vType id="0" speedFactor="normc(0.95,0.10,0.60,1.50)"/>
    <vehicle id="666" type="0" depart="2.26" departLane="free" departSpeed="max" fromTaz="16" toTaz="10">
        <route edges="-71285598#7 -159315422#7 -159315422#5 -159315422#4 -31794904#2 -31794904#0 107538178#1 286852568 -304476025#12 -304476025#11 -304476025#6 -304476025#3 -227913938#10 24452779#0 496253677#0 -499302825#3"/>
    </vehicle>
    <vehicle id="852" type="0" depart="4.29" departLane="free" departSpeed="max" fromTaz="16" toTaz="4">
        <route edges="31794904#1 -159315422#0 160253722#4 286094874#0 286094877 286847289#0 24452783#0 161010065#0 161010072#1 161010072#3"/>
    </vehicle>
    <vehicle id="501" type="0" depart="5.36" departLane="free" departSpeed="max" fromTaz="14" toTaz="17">
        <route edges="279365144#1 286841509#0 286841509#3 -307097146 -259871063#1 -496332199#1 -496332196#1 -496332196#0 496332197#0 274022921#0 274022921#2 274022921#4 160913587"/>
    </vehicle>
    <vehicle id="1253" type="0" depart="6.24" departLane="free" departSpeed="max" fromTaz="3" toTaz="13">
        <route edges="-41389166#7 -545315834#2 -545315834#1 259871045#4 496493919#0 496493919#2 -521058769#1 -111343195#5 -111343195#2 -297896463#3 -297896463#2 -297896463#1 -286841509#4 -286841509#2 306974310#0 306974310#1 -81509011#2"/>
    </vehicle>
    <vehicle id="811" type="0" depart="6.29" departLane="free" departSpeed="max" fromTaz="16" toTaz="2">
        <route edges="159315419 496249898#1 297757243#0 259871063#0 307097147#0 307097147#3 536826453 496253687#1 303889712#0 303889712#1 303889712#2 306997514#7 306997514#10 571719005#0"/>
    </vehicle>
    <vehicle id="1395" type="0" depart="6.86" departLane="free" departSpeed="max" fromTaz="5" toTaz="11">
        <route edges="-41963902#10 -496339477#5 -496339477#2 -297757248#1 -546374573#5 -546374573#4 -496332204#1 -496332204#0 -545315834#2 -545315834#1 -161036803#3 -161036803#0 279369086#1 -159244459#2 -159244459#1 303889712#2 306997512#10 306997515#0 306997515#4"/>
    </vehicle>
    <vehicle id="1216" type="0" depart="6.96" departLane="free" departSpeed="max" fromTaz="3" toTaz="11">
        <route edges="302240826#4 -496332204#0 -545315834#2 -545315834#1 -161036803#3 -161036803#0 279369086#1 -159244459#2 -159244459#1 303889712#2 306997512#10 306997515#0 306997515#4"/>
    </vehicle>
    <vehicle id="503" type="0" depart="7.40" departLane="free" departSpeed="max" fromTaz="14" toTaz="17">
        <route edges="-72871334#3 -72871334#0 72871329#3 72871329#4 72871329#5 72871331 158895303#0 307096544#0 -159315446#2 -159315422#5 -159315422#4 -159315422#0 -160253722#3"/>
    </vehicle>
    <vehicle id="1936" type="0" depart="7.47" departLane="free" departSpeed="max" fromTaz="9" toTaz="4">
        <route edges="227913938#0 227913938#7 -274022921#6 gneE29 27067577#0 27067577#3 496253680#0 -496253679#6 161010065#0 161010072#1 161010072#3"/>
    </vehicle>
    <vehicle id="1096" type="0" depart="8.03" departLane="free" departSpeed="max" fromTaz="18" toTaz="4">
        <route edges="-160913587 -274022921#4 -274022921#3 -274022921#1 286094874#0 286094877 286847289#0 286847289#1 107538164#0 -496332204#0 41389166#5"/>
    </vehicle>
    <vehicle id="1611" type="0" depart="8.29" departLane="free" departSpeed="max" fromTaz="7" toTaz="15">
        <route edges="-24452782#8 -496253677#17 -286094870#14 -286094870#10 -286094870#6 -286094870#2 -286094874#4 -496332197#5 -41389173#1 -496332200#4 -496332200#1 -41389169#14 -41389169#13"/>
    </vehicle>
    <vehicle id="75" type="0" depart="9.04" departLane="free" departSpeed="max" fromTaz="1" toTaz="15">
        <route edges="158895309#2 306997492#0 306997492#2 107538207#0 107538207#2 496253685 365719024#0 319713269#10 319713269#2 319713269#3 319713269#4 -496332198#4 -496332200#7 -496332200#4 -496332200#1 -41389169#14 -41389169#13"/>
    </vehicle>
    <vehicle id="1" type="0" depart="9.30" departLane="free" departSpeed="max" fromTaz="1" toTaz="10">
        <route edges="-571719005#1 306997514#13 306997492#0 306997492#2 107538207#0 107538207#2 496253685 365719024#0 319713269#10 319713269#2 24430153#0 306997497#0 286094870#0 286094870#3 -27067577#2 24452786#0 24452786#3 -496253677#9 27067557#0"/>
    </vehicle>
    <vehicle id="1946" type="0" depart="9.89" departLane="free" departSpeed="max" fromTaz="9" toTaz="4">
        <route edges="496253674#0 496253677#0 496253677#1 496253677#5 -24452786#6 -24452786#2 27067577#0 27067577#3 496253680#0 -496253679#6 -24452783#5 286847289#1 107538164#0 -302240826#6"/>
    </vehicle>
    <vehicle id="1597" type="0" depart="10.78" departLane="free" departSpeed="max" fromTaz="7" toTaz="15">
        <route edges="-24452782#8 -496253677#17 -286094870#14 -286094870#10 -286094870#6 -286094870#2 -286094874#4 -160253722#7 159315422#0 -31794904#2"/>
    </vehicle>
    <vehicle id="354" type="0" depart="13.20" departLane="free" departSpeed="max" fromTaz="12" toTaz="6">
        <route edges="297757252#0 496257361 315886538#0 142297097#0 315886540#0 259871068#0 298812493#0 298812493#1 496493914 38367679#0 38367679#2 108037210#0 158854903#0 546374573#0 546374573#5 496339475#0"/>
    </vehicle>
    <vehicle id="319" type="0" depart="14.66" departLane="free" departSpeed="max" fromTaz="12" toTaz="4">
        <route edges="162442431#0 162442431#4 306997514#0 306997514#7 306997514#10 306997514#13 306997492#0 161036803#0 161036803#1 545315834#1 545315834#2 496332204#0 -302240826#6"/>
    </vehicle>
    <vehicle id="69" type="0" depart="15.40" departLane="free" departSpeed="max" fromTaz="1" toTaz="13">
        <route edges="-303889712#6 306997512#10 -315886536#3 gneE24 gneE22 -562025614#0 561994814#0 561994814#1 -306997494 -297896463#3 -297896463#2 -297896463#1 -297757247#3 -297757247#2 297757244#0 297757244#1 228022791 24452776 72871329#0 286847288#0 228022792#0"/>
    </vehicle>
    <vehicle id="1408" type="0" depart="16.63" departLane="free" departSpeed="max" fromTaz="5" toTaz="13">
        <route edges="-496339476#3 -496253680#6 -496253680#3 -496253680#2 -24452782#3 286094881#0 24452804 -521058769#1 -111343195#5 -111343195#2 -297896463#3 -297896463#2 -297896463#1 -286841509#4 -286841509#2 -279365144#3"/>
    </vehicle>
    <vehicle id="130" type="0" depart="16.69" departLane="free" departSpeed="max" fromTaz="1" toTaz="6">
        <route edges="158782352#4 306997513#5 259871045#1 545315834#1 545315834#2 496332204#0 496332204#1 546374573#0 546374573#5 297757248#0 496339477#0 496339477#3 496339477#6 496253677#22"/>
    </vehicle>
    <vehicle id="55" type="0" depart="16.98" departLane="free" departSpeed="max" fromTaz="1" toTaz="13">
        <route edges="158895309#2 306997512#1 306997512#4 306997512#7 -303889712#3 -303889712#1 -497943357#2 gneE24 228022818#0 315886539#0 315886539#2 279365155#0 279365155#1 279365155#2 279365155#3 279365155#4 279365155#5 496257364#0 496257364#1 -279365144#3"/>
    </vehicle>
    <vehicle id="1648" type="0" depart="19.35" departLane="free" departSpeed="max" fromTaz="7" toTaz="2">
        <route edges="-24452782#8 -24452782#6 -24452782#5 -24452782#3 286094881#0 24452804 -521058769#1 250710098#0 250710098#1 250710098#2 279369086#0 279369086#1 279369086#2 306997493#0"/>
    </vehicle>
    <vehicle id="45" type="0" depart="19.50" departLane="free" departSpeed="max" fromTaz="1" toTaz="11">
        <route edges="-303889712#6 306997512#10 -315886536#3 -161036801#9 gneE5"/>
    </vehicle>
    <vehicle id="689" type="0" depart="20.14" departLane="free" departSpeed="max" fromTaz="16" toTaz="10">
        <route edges="152086640#0 -159315422#10 -159315422#7 -159315422#5 -159315422#4 -31794904#2 -31794904#0 107538178#1 286852568 -304476025#12 -304476025#11 -304476025#6 -304476025#3 -227913938#10 -227913938#6"/>
    </vehicle>
    <vehicle id="42" type="0" depart="20.26" departLane="free" departSpeed="max" fromTaz="1" toTaz="11">
        <route edges="-303889712#6 306997512#10 -315886536#3 -161036801#9 gneE5"/>
    </vehicle>
    <vehicle id="1385" type="0" depart="22.40" departLane="free" departSpeed="max" fromTaz="5" toTaz="11">
        <route edges="-496253677#23 -496339477#7 -496339477#5 -496339477#2 -297757248#1 -546374573#5 -546374573#4 -496332204#1 -496332204#0 -545315834#2 -545315834#1 -161036803#3 -161036803#0 -497943357#6 -497943357#4 -497943357#2 -161036801#9 gneE5"/>
    </vehicle>
    <vehicle id="577" type="0" depart="26.70" departLane="free" departSpeed="max" fromTaz="14" toTaz="4">
        <route edges="-556031052#2 -81509012#2 496249898#1 297757243#0 259871043#0 319713269#7 319713269#8 319713269#10 107538204#0 250710092#0 496253684#5 -552358549#4 38367679#0 41389166#0 496332204#0 -302240826#6"/>
    </vehicle>
    <vehicle id="1283" type="0" depart="26.99" departLane="free" departSpeed="max" fromTaz="3" toTaz="17">
        <route edges="302240826#4 302240826#7 -496253672 -286847289#0 -286094877 -286094874#4 -160253722#7 -160253722#3"/>
    </vehicle>
    <vehicle id="301" type="0" depart="27.82" departLane="free" departSpeed="max" fromTaz="12" toTaz="2">
        <route edges="158783758#2 -81357763#0 496493905#3 306997494 -561994814#3 -561994814#0 562025614#0 gneE21 gneE23 497943357#0 303889712#1 303889712#2 306997514#7 306997514#10 306997514#13 306997493#0"/>
    </vehicle>
    <vehicle id="253" type="0" depart="28.33" departLane="free" departSpeed="max" fromTaz="12" toTaz="17">
        <route edges="162442431#0 162442431#4 -315886536#3 497943357#0 -303889712#0 259871068#0 107538207#0 107538207#2 496253685 365719024#0 319713269#10 319713269#2 319713269#3 279032146#0 279032146#3 496332201#0 274022921#0 274022921#2 274022921#4 160913587"/>
    </vehicle>
    <vehicle id="1894" type="0" depart="29.53" departLane="free" departSpeed="max" fromTaz="9" toTaz="2">
        <route edges="159307912 496253677#5 -24452786#6 -24452786#2 27067577#0 27067577#3 -24452782#3 286094881#0 24452804 -521058769#1 250710098#0 250710098#1 250710098#2 279369086#0 279369086#1 279369086#2 306997493#0"/>
    </vehicle>
    <vehicle id="468" type="0" depart="31.48" departLane="free" departSpeed="max" fromTaz="14" toTaz="13">
        <route edges="81509011#0 306974310#2 306974310#3 556031052#1"/>
    </vehicle>
    <vehicle id="1167" type="0" depart="32.17" departLane="free" departSpeed="max" fromTaz="18" toTaz="8">
        <route edges="-160913587 gneE29 24452786#0 24452786#3 496253677#10 496253677#14 24452782#7"/>
    </vehicle>
    <vehicle id="1637" type="0" depart="32.93" departLane="free" departSpeed="max" fromTaz="7" toTaz="17">
        <route edges="-521131212#2 -496253677#18 -496253677#17 -496253677#13 -24452786#6 -24452786#2 gneE28 160913587"/>
    </vehicle>
    <vehicle id="1748" type="0" depart="34.46" departLane="free" departSpeed="max" fromTaz="7" toTaz="8">
        <route edges="-24452782#8 496253677#18 496253677#19 286847309#10"/>
    </vehicle>
    <vehicle id="633" type="0" depart="34.92" departLane="free" departSpeed="max" fromTaz="14" toTaz="8">
        <route edges="81509011#0 228022808#4 228022808#6 286841509#0 286841509#3 -307097146 -31794905#4 319713269#8 319713269#10 107538204#0 -24452804 -286094881#1 286094878#0 24452782#4 24452782#6 496253677#18 521131212#2"/>
    </vehicle>
    <vehicle id="1068" type="0" depart="35.42" departLane="free" departSpeed="max" fromTaz="18" toTaz="2">
        <route edges="160253722#1 160253722#4 -496332201#4 -279032146#4 -279032146#2 319713269#4 319713269#5 319713269#7 319713269#8 107538158#0 250710098#0 250710098#1 250710098#2 279369086#0 279369086#1 279369086#2 306997493#0"/>
    </vehicle>
    <vehicle id="329" type="0" depart="35.99" departLane="free" departSpeed="max" fromTaz="12" toTaz="4">
        <route edges="158783758#2 -81357763#0 496493905#3 111343195#0 111343195#3 521058769#0 250710092#0 496253684#5 -552358549#4 38367679#0 41389166#0 496332204#0 -302240826#6"/>
    </vehicle>
    <vehicle id="1161" type="0" depart="37.95" departLane="free" departSpeed="max" fromTaz="18" toTaz="8">
        <route edges="160253722#1 160253722#4 274022921#0 274022921#2 274022921#4 gneE29 24452786#0 24452786#3 496253677#10 286094870#15"/>
    </vehicle>
    <vehicle id="1662" type="0" depart="40.48" departLane="free" departSpeed="max" fromTaz="7" toTaz="2">
        <route edges="228022815#0 228022815#2 228022815#4 228022815#5 228022815#6 286847307#0 286847307#2 286847310#0 496493917#0 530771887#0 -161036803#3 -161036803#0 279369086#1 279369086#2 306997493#0"/>
    </vehicle>
    <vehicle id="736" type="0" depart="40.68" departLane="free" departSpeed="max" fromTaz="16" toTaz="13">
        <route edges="31794904#1 159315422#1 41389169#14 496332200#0 160321090 -71285598#5 -496249903#1 -496249903#0 81509012#1 228022808#2 228022808#3 -81509011#2"/>
    </vehicle>
    <vehicle id="38" type="0" depart="41.61" departLane="free" departSpeed="max" fromTaz="1" toTaz="11">
        <route edges="-571719005#1 306997514#13 306997492#0 -497943357#6 -497943357#4 -497943357#2 -161036801#9 gneE5"/>
    </vehicle>
    <vehicle id="1347" type="0" depart="42.29" departLane="free" departSpeed="max" fromTaz="5" toTaz="10">
        <route edges="-496339475#2 297757248#0 -496253680#6 286847309#2 203481580#2 203481580#4 -504514704#6 -504514704#4 24452786#3 -496253677#9 27067557#0"/>
    </vehicle>
    <vehicle id="763" type="0" depart="43.56" departLane="free" departSpeed="max" fromTaz="16" toTaz="13">
        <route edges="41389169#12 159315422#5 159315422#6 -71285598#6 -71285598#5 -496249903#1 -496249903#0 81509012#1 556031052#1"/>
    </vehicle>
    <vehicle id="604" type="0" depart="45.45" departLane="free" departSpeed="max" fromTaz="14" toTaz="6">
        <route edges="279365144#1 286841509#0 286841509#3 -307097146 -31794905#4 319713269#8 319713269#10 107538204#0 -24452804 -286094881#1 286094878#0 496253680#0 496253680#3 496253680#5 496339476#0"/>
    </vehicle>
    <vehicle id="1719" type="0" depart="46.57" departLane="free" departSpeed="max" fromTaz="7" toTaz="6">
        <route edges="-286094870#18 496253677#14 496253677#18 496253677#19 228022815#2 41963902#6 41963902#7"/>
    </vehicle>
    <vehicle id="505" type="0" depart="47.51" departLane="free" departSpeed="max" fromTaz="14" toTaz="17">
        <route edges="-72871334#3 -72871334#0 72871329#3 72871329#4 72871329#5 436251058 159315419 496249903#0 496249903#1 71285598#5 -160321090 496332200#2 41389173#0 496332197#0 274022921#0 274022921#2 274022921#4 160913587"/>
    </vehicle>
    <vehicle id="769" type="0" depart="47.68" departLane="free" departSpeed="max" fromTaz="16" toTaz="13">
        <route edges="152086640#0 152086640#1 -496249903#0 81509012#1 228022808#2 228022808#3 -81509011#2"/>
    </vehicle>
    <vehicle id="1755" type="0" depart="48.47" departLane="free" departSpeed="max" fromTaz="9" toTaz="10">
        <route edges="499302825#0 496253677#1 496253677#5 24452786#7"/>
    </vehicle>
    <vehicle id="1258" type="0" depart="49.53" departLane="free" departSpeed="max" fromTaz="3" toTaz="13">
        <route edges="-496332203#2 -496332204#1 -496332204#0 -545315834#2 -545315834#1 259871045#4 496493919#0 496493919#2 286847273#0 319713269#2 319713269#3 319713269#4 319713269#5 72871326#0 259871042#0 297757244#0 297757244#1 228022791 24452776 72871329#0 72871329#1 72871329#2 72871334#0 72871334#1"/>
    </vehicle>
    <vehicle id="1304" type="0" depart="49.71" departLane="free" departSpeed="max" fromTaz="3" toTaz="2">
        <route edges="302240826#4 -496332204#0 -545315834#2 -545315834#1 -161036803#3 -161036803#0 279369086#1 -159244459#2 -159244459#1 303889712#2 306997514#7 306997514#10 571719005#0"/>
    </vehicle>
    <vehicle id="492" type="0" depart="50.00" departLane="free" departSpeed="max" fromTaz="14" toTaz="15">
        <route edges="81509011#0 306974310#2 306974310#3 -81509012#2 496249903#0 496249903#1 71285598#5 71285598#6 -159315422#7 -159315422#5 -41389169#13"/>
    </vehicle>
    <vehicle id="305" type="0" depart="51.78" departLane="free" departSpeed="max" fromTaz="12" toTaz="4">
        <route edges="297757252#0 496257361 315886538#0 142297097#0 315886540#0 259871068#0 298812493#0 298812493#1 496493914 38367679#0 41389166#0 496332204#0 -302240826#6"/>
    </vehicle>
    <vehicle id="588" type="0" depart="51.93" departLane="free" departSpeed="max" fromTaz="14" toTaz="6">
        <route edges="-228022792#1 72871344 72871329#2 72871329#3 72871329#4 72871329#5 436251058 159315419 496249898#1 297757243#0 259871043#0 319713269#7 319713269#8 319713269#10 107538204#0 -24452804 -286094881#1 286094878#0 496253680#0 496253680#3 496253680#5 496339476#0"/>
    </vehicle>
    <vehicle id="1671" type="0" depart="52.56" departLane="free" departSpeed="max" fromTaz="7" toTaz="2">
        <route edges="-286094870#18 -286094870#14 -286094870#10 -286094870#6 -286094870#2 -306997497#2 -24430153#1 319713269#3 319713269#4 319713269#5 319713269#7 31794905#0 307097146 297896463#0 297896463#2 297896463#3 306997494 -561994814#3 -561994814#0 562025614#0 gneE21 gneE23 315886536#1 306997496#0"/>
    </vehicle>
    <vehicle id="285" type="0" depart="52.62" departLane="free" departSpeed="max" fromTaz="12" toTaz="2">
        <route edges="158995079#0 -561994814#3 -561994814#0 562025614#0 gneE21 gneE23 497943357#0 303889712#1 303889712#2 306997514#7 306997514#10 306997514#13 306997493#0"/>
    </vehicle>
    <vehicle id="581" type="0" depart="57.83" departLane="free" departSpeed="max" fromTaz="14" toTaz="4">
        <route edges="279365144#1 286841509#0 286841509#3 -307097146 -31794905#4 319713269#8 319713269#10 107538204#0 250710092#0 496253684#5 -552358549#4 38367679#0 41389166#0 496332204#0 -302240826#6"/>
    </vehicle>
    <vehicle id="1800" type="0" depart="58.21" departLane="free" departSpeed="max" fromTaz="9" toTaz="11">
        <route edges="227913938#0 227913938#7 -274022921#6 -274022921#4 -274022921#3 -274022921#1 -496332201#4 -279032146#4 -279032146#2 319713269#4 319713269#5 319713269#7 31794905#0 307097146 297896463#0 297896463#2 -158783758#8 -158783758#6"/>
    </vehicle>
    <vehicle id="1371" type="0" depart="61.10" departLane="free" departSpeed="max" fromTaz="5" toTaz="11">
        <route edges="-496339476#3 -297757248#1 -286847301#1 286847307#0 286847307#2 286847310#0 496493917#0 250710099#0 250710099#3 496493902 259871069#0 315886537#0 228022818#0 315886539#0 315886539#2"/>
    </vehicle>
    <vehicle id="678" type="0" depart="61.78" departLane="free" departSpeed="max" fromTaz="16" toTaz="10">
        <route edges="159315419 496249898#1 297757243#0 259871043#0 319713269#7 319713269#8 319713269#10 319713269#2 24430153#0 306997497#0 286094870#0 286094870#3 -27067577#2 24452786#0 24452786#3 -496253677#9 27067557#0"/>
    </vehicle>
    <vehicle id="1431" type="0" depart="62.20" departLane="free" departSpeed="max" fromTaz="5" toTaz="15">
        <route edges="-496253677#23 -496253677#21 -496253677#19 -496253677#18 -496253677#17 -286094870#14 -286094870#10 -286094870#6 -286094870#2 -286094874#4 -496332197#5 -41389173#1 -496332200#4 -496332200#1 -41389169#14 159315422#5 159315422#6 71285598#7"/>
    </vehicle>
    <vehicle id="1366" type="0" depart="66.94" departLane="free" departSpeed="max" fromTaz="5" toTaz="10">
        <route edges="-496253677#23 -496253677#21 -496253677#19 -496253677#18 -496253677#17 -496253677#13 -496253677#9 -496253677#2 -499302825#3"/>
    </vehicle>
    <vehicle id="544" type="0" depart="69.19" departLane="free" departSpeed="max" fromTaz="14" toTaz="2">
        <route edges="-228022792#1 72871344 72871329#2 72871329#3 72871329#4 72871329#5 436251058 159315419 496249898#1 297757243#0 259871063#0 307097147#0 307097147#3 536826453 496253687#1 303889712#0 303889712#1 303889712#2 306997514#7 306997514#10 571719005#0"/>
    </vehicle>
    <vehicle id="465" type="0" depart="69.64" departLane="free" departSpeed="max" fromTaz="14" toTaz="13">
        <route edges="81509011#0 228022808#4 228022808#6 -279365144#3"/>
    </vehicle>
    <vehicle id="1562" type="0" depart="71.39" departLane="free" departSpeed="max" fromTaz="7" toTaz="13">
        <route edges="228022815#0 228022815#2 -41963902#4 -521131212#0 203481580#4 -24452782#5 -24452782#3 286094881#0 24452804 286847273#0 319713269#2 319713269#3 319713269#4 319713269#5 72871326#0 259871042#0 297757244#0 297757244#1 228022791 24452776 72871329#0 72871329#1 72871329#2 72871334#0 72871334#1"/>
    </vehicle>
    <vehicle id="1579" type="0" depart="72.47" departLane="free" departSpeed="max" fromTaz="7" toTaz="13">
        <route edges="-286094870#18 -286094870#14 -286094870#10 -286094870#6 -286094870#2 -306997497#2 -24430153#1 319713269#3 319713269#4 319713269#5 72871326#0 259871042#0 297757244#0 81509012#1 556031052#1"/>
    </vehicle>
    <vehicle id="1064" type="0" depart="72.83" departLane="free" departSpeed="max" fromTaz="18" toTaz="2">
        <route edges="-160913587 -274022921#4 -274022921#3 -274022921#1 -496332201#4 -279032146#4 -279032146#2 319713269#4 319713269#5 319713269#7 319713269#8 107538158#0 250710098#0 250710098#1 250710098#2 279369086#0 279369086#1 279369086#2 306997513#1 -158782352#5"/>
    </vehicle>
    <vehicle id="637" type="0" depart="74.06" departLane="free" departSpeed="max" fromTaz="14" toTaz="8">
        <route edges="81509011#0 228022808#4 228022808#6 286841509#0 286841509#3 -307097146 -31794905#4 319713269#8 319713269#10 107538204#0 -24452804 -286094881#1 286094878#0 24452782#4 24452782#6 496253677#18 521131212#2"/>
    </vehicle>
    <vehicle id="991" type="0" depart="74.34" departLane="free" departSpeed="max" fromTaz="18" toTaz="11">
        <route edges="-160913587 -274022921#4 -274022921#3 -274022921#1 -496332201#4 -279032146#4 -279032146#2 319713269#4 319713269#5 319713269#7 31794905#0 307097146 297896463#0 297896463#2 297896463#3 306997494 -561994814#3 -561994814#0 562025614#0 gneE21 228022818#0 315886539#0 -496257360#5 -496257360#3 306997515#4"/>
    </vehicle>
    <vehicle id="277" type="0" depart="74.38" departLane="free" departSpeed="max" fromTaz="12" toTaz="2">
        <route edges="297757252#0 496257361 315886538#0 gneE23 497943357#0 303889712#1 303889712#2 306997514#7 306997514#10 571719005#0"/>
    </vehicle>
    <vehicle id="848" type="0" depart="76.98" departLane="free" departSpeed="max" fromTaz="16" toTaz="4">
        <route edges="31794904#1 -159315422#0 160253722#4 286094874#0 286094877 286847289#0 286847289#1 107538164#0 -302240826#6"/>
    </vehicle>
    <vehicle id="1578" type="0" depart="80.67" departLane="free" departSpeed="max" fromTaz="7" toTaz="13">
        <route edges="-286094870#18 -286094870#14 -286094870#10 -286094870#6 -286094870#2 -306997497#2 -24430153#1 319713269#3 319713269#4 319713269#5 72871326#0 259871042#0 297757244#0 297757244#1 228022791 24452776 72871329#0 72871329#1 72871329#2 72871334#0 72871334#1"/>
    </vehicle>
    <vehicle id="110" type="0" depart="81.44" departLane="free" departSpeed="max" fromTaz="1" toTaz="17">
        <route edges="-306997496#1 -315886536#3 gneE24 gneE22 -562025614#0 561994814#0 561994814#1 -306997494 -297896463#3 -297896463#2 -297896463#1 -307097146 -259871063#1 -496332199#1 -496332196#1 -496332196#0 -31794904#6 -159315422#0 -160253722#3"/>
    </vehicle>
    <vehicle id="1006" type="0" depart="82.42" departLane="free" departSpeed="max" fromTaz="18" toTaz="13">
        <route edges="160253722#1 159315422#0 159315422#1 159315422#5 159315446#1 -307096544#1 -496339496#3 24452776 72871329#0 72871329#1 72871329#2 72871334#0 72871334#1"/>
    </vehicle>
    <vehicle id="1506" type="0" depart="83.03" departLane="free" departSpeed="max" fromTaz="7" toTaz="10">
        <route edges="228022815#0 -496253677#19 -496253677#18 -496253677#17 -496253677#13 24452786#7"/>
    </vehicle>
    <vehicle id="1436" type="0" depart="83.05" departLane="free" departSpeed="max" fromTaz="5" toTaz="15">
        <route edges="-496339476#3 -496253680#6 -496253680#3 -496253680#2 -24452782#3 286094881#0 24452804 286847273#0 319713269#2 319713269#3 319713269#4 319713269#5 72871326#0 259871042#0 -152086640#6 -152086640#4 -152086640#0"/>
    </vehicle>
    <vehicle id="1919" type="0" depart="83.22" departLane="free" departSpeed="max" fromTaz="9" toTaz="2">
        <route edges="499302825#0 -496253677#0 -24452779#1 227913938#7 -274022921#6 -274022921#4 -274022921#3 -274022921#1 -496332201#4 -279032146#4 -279032146#2 319713269#4 319713269#5 319713269#7 31794905#0 307097146 297896463#0 297896463#2 297896463#3 306997494 -561994814#3 -561994814#0 562025614#0 gneE21 gneE23 315886536#1 306997496#0"/>
    </vehicle>
    <vehicle id="1676" type="0" depart="83.38" departLane="free" departSpeed="max" fromTaz="7" toTaz="4">
        <route edges="228022815#0 228022815#2 228022815#4 228022815#5 228022815#6 286847307#0 161010072#1 -546374573#4 496332203#0"/>
    </vehicle>
    <vehicle id="1993" type="0" depart="83.86" departLane="free" departSpeed="max" fromTaz="9" toTaz="8">
        <route edges="499302825#0 496253677#1 496253677#5 496253677#10 286094870#15"/>
    </vehicle>
    <vehicle id="1697" type="0" depart="84.44" departLane="free" departSpeed="max" fromTaz="7" toTaz="4">
        <route edges="-24452782#8 496253677#18 -521131212#1 -521131212#0 -521131211 -496253679#6 -24452783#5 286847289#1 107538164#0 -302240826#6"/>
    </vehicle>
    <vehicle id="458" type="0" depart="84.74" departLane="free" departSpeed="max" fromTaz="14" toTaz="11">
        <route edges="279365144#1 228022809#0 228022809#4 228022809#5 228022809#7 228022809#8 228022809#9 297757252#0 -496257360#5 gneE5"/>
    </vehicle>
    <vehicle id="481" type="0" depart="85.55" departLane="free" departSpeed="max" fromTaz="14" toTaz="15">
        <route edges="-228022792#1 72871344 72871329#2 72871329#3 72871329#4 72871329#5 72871331 158895303#0 307096544#0 -159315446#2 -159315422#5 -159315422#4 -31794904#2"/>
    </vehicle>
    <vehicle id="58" type="0" depart="87.72" departLane="free" departSpeed="max" fromTaz="1" toTaz="13">
        <route edges="158782352#4 306997513#5 259871045#1 259871045#4 496493919#0 496493919#2 286847273#0 319713269#2 319713269#3 319713269#4 319713269#5 72871326#0 259871042#0 297757244#0 297757244#1 228022791 24452776 72871329#0 286847288#0 228022792#0"/>
    </vehicle>
    <vehicle id="1930" type="0" depart="88.96" departLane="free" departSpeed="max" fromTaz="9" toTaz="4">
        <route edges="-24452786#9 -24452786#6 -24452786#2 27067577#0 27067577#3 496253680#0 -496253679#6 -24452783#5 286847289#1 107538164#0 -302240826#6"/>
    </vehicle>
    <vehicle id="1658" type="0" depart="90.35" departLane="free" departSpeed="max" fromTaz="7" toTaz="2">
        <route edges="-24452782#8 -24452782#6 -24452782#5 -24452782#3 286094881#0 24452804 -521058769#1 250710098#0 250710098#1 250710098#2 279369086#0 279369086#1 279369086#2 306997493#0"/>
    </vehicle>
    <vehicle id="1065" type="0" depart="90.54" departLane="free" departSpeed="max" fromTaz="18" toTaz="2">
        <route edges="-160913587 -274022921#4 -274022921#3 -274022921#1 -496332201#4 -279032146#4 -279032146#2 319713269#4 319713269#5 319713269#7 319713269#8 107538158#0 250710098#0 250710098#1 250710098#2 279369086#0 279369086#1 279369086#2 306997513#1 -158782352#5"/>
    </vehicle>
    <vehicle id="1348" type="0" depart="90.63" departLane="free" departSpeed="max" fromTaz="5" toTaz="10">
        <route edges="-496339475#2 297757248#0 -496253680#6 286847309#2 203481580#2 203481580#4 -504514704#6 -504514704#4 24452786#3 -496253677#9 -496253677#2 -499302825#3"/>
    </vehicle>
    <vehicle id="72" type="0" depart="90.93" departLane="free" departSpeed="max" fromTaz="1" toTaz="13">
        <route edges="-306997496#1 -315886536#3 gneE24 228022818#0 315886539#0 315886539#2 279365155#0 279365155#1 279365155#2 279365155#3 279365155#4 279365155#5 496257364#0 496257364#1 306974310#0 306974310#1 306974310#2 306974310#3 556031052#1"/>
    </vehicle>
    <vehicle id="1622" type="0" depart="91.24" departLane="free" departSpeed="max" fromTaz="7" toTaz="17">
        <route edges="-521131212#2 -496253677#18 -496253677#17 -496253677#13 -24452786#6 -24452786#2 gneE28 160913587"/>
    </vehicle>
    <vehicle id="1873" type="0" depart="91.48" departLane="free" departSpeed="max" fromTaz="9" toTaz="17">
        <route edges="499302825#0 -496253677#0 -24452779#1 227913938#7 -274022921#6 -274022921#4 -274022921#3 -274022921#1 -160253722#7 -160253722#3"/>
    </vehicle>
    <vehicle id="1382" type="0" depart="92.01" departLane="free" departSpeed="max" fromTaz="5" toTaz="11">
        <route edges="-496253677#23 -496339477#7 -41963902#6 228022815#4 203481580#2 -521131211 -496253680#2 -24452782#3 286094881#0 24452804 -521058769#1 -111343195#5 -111343195#2 -496493905#3 81357763#0 -158783758#6"/>
    </vehicle>
    <vehicle id="502" type="0" depart="94.43" departLane="free" departSpeed="max" fromTaz="14" toTaz="17">
        <route edges="-556031052#2 -81509012#2 496249903#0 496249903#1 71285598#5 -160321090 496332200#2 41389173#0 496332197#0 274022921#0 274022921#2 274022921#4 160913587"/>
    </vehicle>
    <vehicle id="718" type="0" depart="95.21" departLane="free" departSpeed="max" fromTaz="16" toTaz="11">
        <route edges="41389169#12 41389169#14 496332200#0 496332200#2 496332200#5 496332199#0 259871063#0 307097146 297896463#0 297896463#2 -158783758#8 -158783758#6"/>
    </vehicle>