<?xml version="1.0" encoding="UTF-8"?>

<!-- generated on 2023-03-31 10:08:29 by Eclipse SUMO duarouter Version 1.14.0
<configuration xmlns:xsi="http://www.w3.org/2001/XMLSchema-instance" xsi:noNamespaceSchemaLocation="http://sumo.dlr.de/xsd/duarouterConfiguration.xsd">

    <input>
        <net-file value="Tainan.net.xml"/>
        <additional-files value="vtype.xml"/>
        <route-files value="od_file.odtrips.xml"/>
    </input>

    <output>
        <output-file value="rou1/od_route_file.odtrips17.rou.xml"/>
    </output>

</configuration>
-->

<routes xmlns:xsi="http://www.w3.org/2001/XMLSchema-instance" xsi:noNamespaceSchemaLocation="http://sumo.dlr.de/xsd/routes_file.xsd">
    <vType id="0" speedFactor="normc(0.95,0.10,0.60,1.50)"/>
    <vehicle id="1895" type="0" depart="0.29" departLane="free" departSpeed="max" fromTaz="9" toTaz="2">
        <route edges="499302825#0 496253677#1 496253677#5 -24452786#6 -24452786#2 27067577#0 27067577#3 -24452782#3 286094881#0 24452804 -521058769#1 250710098#0 250710098#1 250710098#2 496493902 303889712#0 303889712#1 303889712#2 306997514#7 306997514#10 571719005#0"/>
    </vehicle>
    <vehicle id="118" type="0" depart="1.69" departLane="free" departSpeed="max" fromTaz="1" toTaz="4">
        <route edges="-571719005#1 306997514#13 306997492#0 161036803#0 161036803#1 545315834#1 545315834#2 496332204#0 -302240826#6"/>
    </vehicle>
    <vehicle id="1031" type="0" depart="2.52" departLane="free" departSpeed="max" fromTaz="18" toTaz="13">
        <route edges="-160913587 -274022921#4 -274022921#3 -274022921#1 -496332197#5 -41389173#1 -496332200#4 -496332200#1 -41389169#14 159315422#5 159315446#1 -307096544#1 -496339496#3 24452776 72871329#0 72871329#1 72871329#2 72871334#0 72871334#1"/>
    </vehicle>
    <vehicle id="1450" type="0" depart="3.78" departLane="free" departSpeed="max" fromTaz="5" toTaz="17">
        <route edges="-496339476#3 -496253680#6 -496253680#3 -496253680#2 -27067577#6 -286094870#6 -286094870#2 -286094874#4 -160253722#7 -160253722#3"/>
    </vehicle>
    <vehicle id="1831" type="0" depart="4.79" departLane="free" departSpeed="max" fromTaz="9" toTaz="13">
        <route edges="496253674#0 -24452779#1 227913938#7 304476025#0 304476025#4 304476025#7 304476025#12 160253726 41389178 -160253727 -307096544#5 -307096544#3 -307096544#1 -496339496#3 24452776 72871329#0 72871329#1 72871329#2 72871334#0 72871334#1"/>
    </vehicle>
    <vehicle id="1548" type="0" depart="5.21" departLane="free" departSpeed="max" fromTaz="7" toTaz="11">
        <route edges="-286094870#18 -286094870#14 -286094870#10 -286094870#6 -286094870#2 -306997497#2 -24430153#1 319713269#3 319713269#4 319713269#5 319713269#7 31794905#0 307097146 297896463#0 297896463#2 297896463#3 306997494 -561994814#3 -561994814#0 562025614#0 gneE21 228022818#0 315886539#0 315886539#2"/>
    </vehicle>
    <vehicle id="175" type="0" depart="5.25" departLane="free" departSpeed="max" fromTaz="12" toTaz="10">
        <route edges="-gneE5 496257360#4 496257361 315886538#0 142297097#0 315886540#0 259871068#0 107538207#0 107538207#2 496253685 365719024#0 319713269#10 319713269#2 24430153#0 306997497#0 286094870#0 286094870#3 -27067577#2 24452786#0 24452786#3 -496253677#9 -496253677#2 -499302825#3"/>
    </vehicle>
    <vehicle id="1643" type="0" depart="5.30" departLane="free" departSpeed="max" fromTaz="7" toTaz="2">
        <route edges="-286094870#18 -286094870#14 504514704#5 -24452782#5 -24452782#3 286094881#0 24452804 -521058769#1 250710098#0 250710098#1 250710098#2 496493902 303889712#0 303889712#1 303889712#2 306997514#7 306997514#10 571719005#0"/>
    </vehicle>
    <vehicle id="1389" type="0" depart="6.92" departLane="free" departSpeed="max" fromTaz="5" toTaz="11">
        <route edges="-496339476#3 -297757248#1 -546374573#5 -546374573#4 -496332204#1 -496332204#0 -545315834#2 -545315834#1 -161036803#3 -161036803#0 279369086#1 -159244459#2 -159244459#1 303889712#2 306997512#10 306997515#0 306997515#4"/>
    </vehicle>
    <vehicle id="236" type="0" depart="8.48" departLane="free" departSpeed="max" fromTaz="12" toTaz="15">
        <route edges="158995079#0 -306997494 -297896463#3 -297896463#2 -297896463#1 -297757247#3 -297757247#2 297757244#0 297757244#1"/>
    </vehicle>
    <vehicle id="353" type="0" depart="8.55" departLane="free" departSpeed="max" fromTaz="12" toTaz="6">
        <route edges="162442431#0 162442431#4 306997514#0 306997514#7 306997514#10 306997514#13 306997492#0 161036803#0 161036803#1 545315834#1 545315834#2 496332204#0 496332204#1 546374573#0 546374573#5 297757248#0 496339477#0 496339477#3 496339477#6 496253677#22"/>
    </vehicle>
    <vehicle id="721" type="0" depart="8.71" departLane="free" departSpeed="max" fromTaz="16" toTaz="11">
        <route edges="-71285598#7 -71285598#6 -71285598#5 -496249903#1 152086640#5 297757247#0 297757247#3 297896463#0 297896463#2 -158783758#8 -158783758#6"/>
    </vehicle>
    <vehicle id="946" type="0" depart="9.23" departLane="free" departSpeed="max" fromTaz="18" toTaz="10">
        <route edges="160253722#1 159315422#0 -31794904#2 -31794904#0 107538178#1 286852568 -304476025#12 -304476025#11 -304476025#6 -304476025#3 -227913938#10 -227913938#6"/>
    </vehicle>
    <vehicle id="965" type="0" depart="10.46" departLane="free" departSpeed="max" fromTaz="18" toTaz="11">
        <route edges="-160913587 -274022921#4 -274022921#3 -274022921#1 -496332201#4 -279032146#4 -279032146#2 319713269#4 319713269#5 319713269#7 31794905#0 307097146 297896463#0 297896463#2 -158783758#8 -158783758#6"/>
    </vehicle>
    <vehicle id="1558" type="0" depart="10.85" departLane="free" departSpeed="max" fromTaz="7" toTaz="13">
        <route edges="-521131212#2 -496253677#18 -496253677#17 -286094870#14 -286094870#10 -286094870#6 -286094870#2 -306997497#2 -24430153#1 319713269#3 319713269#4 319713269#5 72871326#0 259871042#0 297757244#0 297757244#1 228022791 24452776 72871329#0 286847288#0 228022792#0"/>
    </vehicle>
    <vehicle id="638" type="0" depart="11.48" departLane="free" departSpeed="max" fromTaz="14" toTaz="8">
        <route edges="81509011#0 228022808#4 228022808#6 286841509#0 286841509#3 -307097146 -31794905#4 319713269#8 319713269#10 107538204#0 -24452804 -286094881#1 286094878#0 24452782#4 24452782#6 24452782#7"/>
    </vehicle>
    <vehicle id="1168" type="0" depart="11.80" departLane="free" departSpeed="max" fromTaz="18" toTaz="8">
        <route edges="-160913587 gneE29 24452786#0 24452786#3 496253677#10 496253677#14 496253677#18 521131212#2"/>
    </vehicle>
    <vehicle id="821" type="0" depart="16.44" departLane="free" departSpeed="max" fromTaz="16" toTaz="4">
        <route edges="41389169#12 41389169#14 496332200#0 496332200#2 496332200#5 41389183#0 159279412 306997498#0 -286361759#1 -552358549#4 38367679#0 41389166#0 496332204#0 -302240826#6"/>
    </vehicle>
    <vehicle id="1055" type="0" depart="16.47" departLane="free" departSpeed="max" fromTaz="18" toTaz="17">
        <route edges="-160913587 -274022921#4 -274022921#3 -274022921#1 -160253722#7 -160253722#3"/>
    </vehicle>
    <vehicle id="271" type="0" depart="17.32" departLane="free" departSpeed="max" fromTaz="12" toTaz="2">
        <route edges="158783758#2 -81357763#0 496493905#3 306997494 -561994814#3 -561994814#0 562025614#0 gneE21 gneE23 315886536#1 306997514#0 303889712#5"/>
    </vehicle>
    <vehicle id="70" type="0" depart="17.68" departLane="free" departSpeed="max" fromTaz="1" toTaz="13">
        <route edges="-571719005#1 306997514#13 306997492#0 -497943357#6 -497943357#4 -497943357#2 gneE24 228022818#0 315886539#0 315886539#2 279365155#0 279365155#1 279365155#2 279365155#3 279365155#4 279365155#5 496257364#0 496257364#1 306974310#0 306974310#1 306974310#2 306974310#3 556031052#1"/>
    </vehicle>
    <vehicle id="1937" type="0" depart="19.07" departLane="free" departSpeed="max" fromTaz="9" toTaz="4">
        <route edges="227913938#0 227913938#7 -274022921#6 gneE29 27067577#0 27067577#3 496253680#0 -496253679#6 161010065#0 161010072#1 161010072#3"/>
    </vehicle>
    <vehicle id="1029" type="0" depart="19.69" departLane="free" departSpeed="max" fromTaz="18" toTaz="13">
        <route edges="-160913587 -274022921#4 -274022921#3 -274022921#1 -496332197#5 -41389173#1 -496332200#4 -496332200#1 -41389169#14 159315422#5 159315446#1 -307096544#1 -496339496#3 24452776 72871329#0 72871329#1 72871329#2 72871334#0 72871334#1"/>
    </vehicle>
    <vehicle id="165" type="0" depart="20.83" departLane="free" departSpeed="max" fromTaz="12" toTaz="10">
        <route edges="162442431#0 162442431#4 -315886536#3 497943357#0 -303889712#0 259871068#0 107538207#0 107538207#2 496253685 365719024#0 319713269#10 319713269#2 319713269#3 279032146#0 279032146#3 496332201#0 274022921#0 274022921#2 274022921#4 274022921#5 -227913938#10 -227913938#6"/>
    </vehicle>
    <vehicle id="1729" type="0" depart="21.04" departLane="free" departSpeed="max" fromTaz="7" toTaz="6">
        <route edges="228022815#0 228022815#2 228022815#4 -203481580#0 -496339477#2 496339476#0"/>
    </vehicle>
    <vehicle id="403" type="0" depart="21.15" departLane="free" departSpeed="max" fromTaz="12" toTaz="8">
        <route edges="297757252#0 496257361 315886538#0 142297097#0 315886540#0 259871068#0 298812493#0 298812493#1 496493914 38367679#0 38367679#2 108037210#0 108037210#1 108037210#4 286847309#0 286847309#2 286847309#4 286847309#8 286847309#10"/>
    </vehicle>
    <vehicle id="1325" type="0" depart="21.75" departLane="free" departSpeed="max" fromTaz="3" toTaz="8">
        <route edges="-41389166#7 496332204#0 496332204#1 -158854903#1 108037210#1 108037210#4 286847309#0 286847309#2 286847309#4 286847309#8 286847309#10"/>
    </vehicle>
    <vehicle id="1363" type="0" depart="23.16" departLane="free" departSpeed="max" fromTaz="5" toTaz="10">
        <route edges="-496253677#23 -496253677#21 -496253677#19 -496253677#18 -496253677#17 -496253677#13 -496253677#9 27067557#0"/>
    </vehicle>
    <vehicle id="905" type="0" depart="23.30" departLane="free" departSpeed="max" fromTaz="16" toTaz="8">
        <route edges="159315419 496249898#1 297757243#0 259871043#0 319713269#7 319713269#8 319713269#10 319713269#2 24430153#0 306997497#0 286094870#0 286094870#3 286094870#7 286094870#11 286094870#15"/>
    </vehicle>
    <vehicle id="1251" type="0" depart="24.77" departLane="free" departSpeed="max" fromTaz="3" toTaz="13">
        <route edges="-496332203#2 -496332204#1 -496332204#0 -545315834#2 -545315834#1 259871045#4 496493919#0 496493919#2 286847273#0 319713269#2 319713269#3 319713269#4 319713269#5 72871326#0 259871042#0 297757244#0 297757244#1 228022791 24452776 72871329#0 286847288#0 228022792#0"/>
    </vehicle>
    <vehicle id="1170" type="0" depart="25.88" departLane="free" departSpeed="max" fromTaz="18" toTaz="8">
        <route edges="160253722#1 160253722#4 274022921#0 274022921#2 274022921#4 gneE29 24452786#0 24452786#3 496253677#10 286094870#15"/>
    </vehicle>
    <vehicle id="851" type="0" depart="26.00" departLane="free" departSpeed="max" fromTaz="16" toTaz="4">
        <route edges="152086640#0 152086640#1 152086640#5 297757243#0 259871043#0 319713269#7 319713269#8 319713269#10 107538204#0 250710092#0 496253684#5 -552358549#4 38367679#0 38367679#2 108037210#0 158854903#0 496332203#0"/>
    </vehicle>
    <vehicle id="827" type="0" depart="26.48" departLane="free" departSpeed="max" fromTaz="16" toTaz="4">
        <route edges="-71285598#7 -159315422#7 -159315446#0 496332200#0 496332200#2 496332200#5 41389183#0 159279412 306997498#0 -286361759#1 -552358549#4 38367679#0 41389166#0 496332204#0 -302240826#6"/>
    </vehicle>
    <vehicle id="115" type="0" depart="27.18" departLane="free" departSpeed="max" fromTaz="1" toTaz="2">
        <route edges="-571719005#1 306997514#13 306997492#0 -497943357#6 -497943357#4 303889712#1 303889712#2 303889712#5"/>
    </vehicle>
    <vehicle id="855" type="0" depart="27.29" departLane="free" departSpeed="max" fromTaz="16" toTaz="6">
        <route edges="31794904#1 -159315422#0 160253722#4 286094874#0 286094877 286847289#0 24452783#0 496253679#0 496253680#3 286847309#2 -203481580#0 496339477#3 41963902#7"/>
    </vehicle>
    <vehicle id="248" type="0" depart="28.24" departLane="free" departSpeed="max" fromTaz="12" toTaz="17">
        <route edges="158995079#0 -306997494 111343195#0 111343195#3 365719024#0 319713269#10 319713269#2 319713269#3 279032146#0 279032146#3 496332201#0 274022921#0 274022921#2 274022921#4 160913587"/>
    </vehicle>
    <vehicle id="145" type="0" depart="28.78" departLane="free" departSpeed="max" fromTaz="1" toTaz="8">
        <route edges="158895309#2 306997492#0 306997492#2 107538207#0 107538207#2 496253684#0 496253684#5 496253682#0 24452783#0 496253679#0 gneE27 521131212#0 521131212#1 521131212#2"/>
    </vehicle>
    <vehicle id="278" type="0" depart="29.12" departLane="free" departSpeed="max" fromTaz="12" toTaz="2">
        <route edges="-gneE5 -496257360#3 162442431#4 306997514#0 303889712#5"/>
    </vehicle>
    <vehicle id="1845" type="0" depart="29.64" departLane="free" departSpeed="max" fromTaz="9" toTaz="15">
        <route edges="159307912 -496253677#2 -496253677#0 -24452779#1 227913938#7 304476025#0 304476025#4 304476025#7 304476025#12 160253726 41389178 -160253727 -307096544#5 -307096544#3 -71285598#7 159315422#8 -152086640#0"/>
    </vehicle>
    <vehicle id="580" type="0" depart="29.78" departLane="free" departSpeed="max" fromTaz="14" toTaz="4">
        <route edges="-72871334#3 -72871334#0 72871329#3 72871329#4 72871329#5 436251058 159315419 496249898#1 297757243#0 259871043#0 319713269#7 319713269#8 319713269#10 107538204#0 250710092#0 496253684#5 -552358549#4 38367679#0 38367679#2 108037210#0 158854903#0 496332203#0"/>
    </vehicle>
    <vehicle id="361" type="0" depart="30.31" departLane="free" departSpeed="max" fromTaz="12" toTaz="6">
        <route edges="297757252#0 496257361 315886538#0 142297097#0 315886540#0 259871068#0 298812493#0 298812493#1 496493914 38367679#0 38367679#2 108037210#0 158854903#0 546374573#0 546374573#5 496339475#0"/>
    </vehicle>
    <vehicle id="1371" type="0" depart="30.80" departLane="free" departSpeed="max" fromTaz="5" toTaz="11">
        <route edges="-41963902#10 -41963902#6 228022815#4 203481580#2 -521131211 -496253680#2 -24452782#3 286094881#0 24452804 -521058769#1 -111343195#5 -111343195#2 -496493905#3 81357763#0 -158783758#6"/>
    </vehicle>
    <vehicle id="93" type="0" depart="30.86" departLane="free" departSpeed="max" fromTaz="1" toTaz="17">
        <route edges="-303889712#6 -303889712#3 -303889712#1 -303889712#0 -496253687#1 -536826453 -307097147#3 -307097147#2 -259871063#1 -496332199#1 -496332196#1 -496332196#0 -31794904#6 -159315422#0 -160253722#3"/>
    </vehicle>
    <vehicle id="345" type="0" depart="32.13" departLane="free" departSpeed="max" fromTaz="12" toTaz="6">
        <route edges="158995079#0 -561994814#3 41389167#0 554648350#0 496253684#0 496253684#5 496253682#0 24452783#0 496253679#0 496253680#3 286847309#2 -203481580#0 496339477#3 41963902#7"/>
    </vehicle>
    <vehicle id="219" type="0" depart="32.61" departLane="free" departSpeed="max" fromTaz="12" toTaz="15">
        <route edges="162442431#0 496257360#1 496257360#4 496257361 315886538#0 gneE22 -562025614#0 561994814#0 561994814#1 -306997494 -297896463#3 -297896463#2 -297896463#1 -307097146 -259871063#1 -496332199#1 -496332196#1 -496332196#0 -31794904#6 -31794904#2"/>
    </vehicle>
    <vehicle id="457" type="0" depart="32.76" departLane="free" departSpeed="max" fromTaz="14" toTaz="13">
        <route edges="-72871334#3 -72871334#0 72871329#3 27067581 228022808#0 556031052#1"/>
    </vehicle>
    <vehicle id="1523" type="0" depart="32.95" departLane="free" departSpeed="max" fromTaz="7" toTaz="11">
        <route edges="-521131212#2 -496253677#18 -24452782#6 -24452782#5 -24452782#3 286094881#0 24452804 -521058769#1 -111343195#5 -111343195#2 -496493905#3 81357763#0 -158783758#6"/>
    </vehicle>
    <vehicle id="1923" type="0" depart="33.09" departLane="free" departSpeed="max" fromTaz="9" toTaz="2">
        <route edges="-24452786#9 -24452786#6 -24452786#2 27067577#0 27067577#3 -24452782#3 286094881#0 24452804 -521058769#1 250710098#0 250710098#1 250710098#2 496493902 303889712#0 303889712#1 303889712#2 306997514#7 306997514#10 571719005#0"/>
    </vehicle>
    <vehicle id="237" type="0" depart="33.14" departLane="free" departSpeed="max" fromTaz="12" toTaz="15">
        <route edges="297757252#0 496257361 315886538#0 gneE22 -562025614#0 561994814#0 561994814#1 -306997494 -297896463#3 -297896463#2 -297896463#1 -297757247#3 -297757247#2 297757244#0 297757244#1"/>
    </vehicle>
    <vehicle id="1858" type="0" depart="34.47" departLane="free" departSpeed="max" fromTaz="9" toTaz="15">
        <route edges="496253674#0 -24452779#1 227913938#7 304476025#0 304476025#4 304476025#7 304476025#12 160253726 41389178 -160253727 -307096544#5 -307096544#3 -71285598#7 -71285598#6 -71285598#5 -496249903#1 -496249903#0 297757244#1"/>
    </vehicle>
    <vehicle id="1071" type="0" depart="36.26" departLane="free" departSpeed="max" fromTaz="18" toTaz="2">
        <route edges="160253722#1 159315422#0 31794904#3 496332196#0 496332196#1 496332199#0 259871063#0 307097147#0 307097147#3 536826453 496253687#1 303889712#0 303889712#1 303889712#2 306997514#7 306997514#10 571719005#0"/>
    </vehicle>
    <vehicle id="1554" type="0" depart="37.04" departLane="free" departSpeed="max" fromTaz="7" toTaz="13">
        <route edges="228022815#0 228022815#2 -41963902#4 -521131212#0 203481580#4 -24452782#5 -24452782#3 286094881#0 24452804 -521058769#1 -111343195#5 -111343195#2 -297896463#3 -297896463#2 -297896463#1 -286841509#4 -286841509#2 306974310#0 306974310#1 -81509011#2"/>
    </vehicle>
    <vehicle id="485" type="0" depart="37.35" departLane="free" departSpeed="max" fromTaz="14" toTaz="15">
        <route edges="-228022792#1 72871344 72871329#2 72871329#3 27067581 228022808#0 -81509012#2 297757244#1"/>
    </vehicle>
    <vehicle id="1308" type="0" depart="37.74" departLane="free" departSpeed="max" fromTaz="3" toTaz="4">
        <route edges="302240826#4 496332204#1 546374573#0 161010072#3"/>
    </vehicle>
    <vehicle id="1052" type="0" depart="38.36" departLane="free" departSpeed="max" fromTaz="18" toTaz="17">
        <route edges="-160913587 -274022921#4 -274022921#3 -274022921#1 -160253722#7 -160253722#3"/>
    </vehicle>
    <vehicle id="1119" type="0" depart="38.95" departLane="free" departSpeed="max" fromTaz="18" toTaz="4">
        <route edges="-160913587 -274022921#4 -274022921#3 -274022921#1 286094874#0 286094877 286847289#0 286847289#1 107538164#0 -496332204#0 41389166#5"/>
    </vehicle>
    <vehicle id="1893" type="0" depart="39.56" departLane="free" departSpeed="max" fromTaz="9" toTaz="17">
        <route edges="227913938#0 227913938#7 -274022921#6 -274022921#4 -274022921#3 -274022921#1 -160253722#7 -160253722#3"/>
    </vehicle>
    <vehicle id="1385" type="0" depart="40.69" departLane="free" departSpeed="max" fromTaz="5" toTaz="11">
        <route edges="-496339475#2 -286847301#1 286847307#0 -161010065#9 -24452783#5 -496253682#3 -496253684#6 496493919#2 -521058769#1 -111343195#5 -111343195#2 -496493905#3 81357763#0 -158783758#6"/>
    </vehicle>
    <vehicle id="103" type="0" depart="41.00" departLane="free" departSpeed="max" fromTaz="1" toTaz="17">
        <route edges="158782352#4 306997513#5 259871045#1 259871045#4 496493919#0 496493919#2 286847273#0 319713269#2 319713269#3 279032146#0 279032146#3 496332201#0 274022921#0 274022921#2 274022921#4 160913587"/>
    </vehicle>
    <vehicle id="1439" type="0" depart="42.28" departLane="free" departSpeed="max" fromTaz="5" toTaz="17">
        <route edges="-496339475#2 -286847301#1 286847307#0 -161010065#9 -24452783#5 -286847289#0 -286094877 -286094874#4 -160253722#7 -160253722#3"/>
    </vehicle>
    <vehicle id="1467" type="0" depart="43.41" departLane="free" departSpeed="max" fromTaz="5" toTaz="4">
        <route edges="-496253677#23 -496339477#7 -496339477#5 -496339477#2 -297757248#1 -546374573#5 -546374573#4 -496332204#1 -496332204#0 41389166#5"/>
    </vehicle>
    <vehicle id="1032" type="0" depart="44.44" departLane="free" departSpeed="max" fromTaz="18" toTaz="13">
        <route edges="-160913587 -274022921#4 -274022921#3 -274022921#1 -496332197#5 -41389173#1 -496332200#4 160321090 -71285598#5 -496249903#1 -496249903#0 81509012#1 556031052#1"/>
    </vehicle>
    <vehicle id="1216" type="0" depart="48.74" departLane="free" departSpeed="max" fromTaz="3" toTaz="11">
        <route edges="-496332203#2 -496332204#1 -496332204#0 -545315834#2 -545315834#1 -161036803#3 -161036803#0 279369086#1 -159244459#2 -159244459#1 303889712#2 306997512#10 306997515#0 306997515#4"/>
    </vehicle>
    <vehicle id="1048" type="0" depart="48.90" departLane="free" departSpeed="max" fromTaz="18" toTaz="17">
        <route edges="160253722#1 159315422#0 31794904#3 496332197#0 -160253722#7 -160253722#3"/>
    </vehicle>
    <vehicle id="1366" type="0" depart="50.30" departLane="free" departSpeed="max" fromTaz="5" toTaz="10">
        <route edges="-41963902#10 -41963902#6 286847309#8 -496253677#19 -496253677#18 -496253677#17 -496253677#13 24452786#7"/>
    </vehicle>
    <vehicle id="61" type="0" depart="50.57" departLane="free" departSpeed="max" fromTaz="1" toTaz="13">
        <route edges="-303889712#6 306997512#10 -315886536#3 gneE24 228022818#0 315886539#0 315886539#2 279365155#0 279365155#1 279365155#2 279365155#3 279365155#4 279365155#5 496257364#0 496257364#1 306974310#0 306974310#1 -81509011#2"/>
    </vehicle>
    <vehicle id="1995" type="0" depart="50.67" departLane="free" departSpeed="max" fromTaz="9" toTaz="8">
        <route edges="499302825#0 496253677#1 496253677#5 496253677#10 496253677#14 24452782#7"/>
    </vehicle>
    <vehicle id="1132" type="0" depart="52.26" departLane="free" departSpeed="max" fromTaz="18" toTaz="6">
        <route edges="160253722#1 160253722#4 286094874#0 286094877 286847289#0 24452783#0 496253679#0 gneE27 -203481580#3 286847309#4 41963902#6 496339477#6 496253677#22"/>
    </vehicle>
    <vehicle id="992" type="0" depart="53.01" departLane="free" departSpeed="max" fromTaz="18" toTaz="11">
        <route edges="160253722#1 159315422#0 31794904#3 496332196#0 496332196#1 496332199#0 259871063#0 307097146 297896463#0 297896463#2 297896463#3 306997494 -561994814#3 -561994814#0 562025614#0 gneE21 228022818#0 315886539#0 315886539#2"/>
    </vehicle>
    <vehicle id="1143" type="0" depart="54.44" departLane="free" departSpeed="max" fromTaz="18" toTaz="6">
        <route edges="-160913587 gneE29 24452786#0 24452786#3 496253677#10 496253677#14 496253677#18 496253677#19 496253677#21 496253677#22"/>
    </vehicle>
    <vehicle id="1241" type="0" depart="54.46" departLane="free" departSpeed="max" fromTaz="3" toTaz="13">
        <route edges="-161010072#5 -161010072#2 286847307#2 286847310#0 496493917#0 496493919#0 496493919#2 -521058769#1 -111343195#5 -111343195#2 -297896463#3 -297896463#2 -297896463#1 -286841509#4 -286841509#2 306974310#0 306974310#1 -81509011#2"/>
    </vehicle>
    <vehicle id="1245" type="0" depart="54.68" departLane="free" departSpeed="max" fromTaz="3" toTaz="13">
        <route edges="302240826#4 -496332204#0 -545315834#2 -545315834#1 259871045#4 496493919#0 496493919#2 -521058769#1 -111343195#5 -111343195#2 -297896463#3 -297896463#2 -297896463#1 -286841509#4 -286841509#2 306974310#0 306974310#1 -81509011#2"/>
    </vehicle>
    <vehicle id="1186" type="0" depart="55.27" departLane="free" departSpeed="max" fromTaz="18" toTaz="8">
        <route edges="160253722#1 160253722#4 274022921#0 274022921#2 274022921#4 gneE29 24452786#0 24452786#3 496253677#10 286094870#15"/>
    </vehicle>
    <vehicle id="1702" type="0" depart="55.82" departLane="free" departSpeed="max" fromTaz="7" toTaz="4">
        <route edges="-24452782#8 496253677#18 -521131212#1 -521131212#0 -521131211 -496253679#6 -24452783#5 286847289#1 107538164#0 -302240826#6"/>
    </vehicle>
    <vehicle id="1824" type="0" depart="56.77" departLane="free" departSpeed="max" fromTaz="9" toTaz="13">
        <route edges="-24452786#9 -24452786#6 -24452786#2 27067577#0 -286094870#6 -286094870#2 -306997497#2 -24430153#1 319713269#3 319713269#4 319713269#5 319713269#7 31794905#0 307097146 -286841509#4 -286841509#2 -279365144#3"/>
    </vehicle>
    <vehicle id="549" type="0" depart="57.54" departLane="free" departSpeed="max" fromTaz="14" toTaz="2">
        <route edges="81509011#0 228022808#4 228022808#6 228022809#0 228022809#4 228022809#5 228022809#7 228022809#8 228022809#9 297757252#0 496257361 315886538#0 gneE23 315886536#1 306997496#0"/>
    </vehicle>
    <vehicle id="83" type="0" depart="57.65" departLane="free" departSpeed="max" fromTaz="1" toTaz="15">
        <route edges="158782352#4 306997513#5 259871045#1 259871045#4 496493919#0 496493919#2 286847273#0 319713269#2 319713269#3 319713269#4 -496332198#4 -496332196#1 -496332196#0 -31794904#6 -31794904#2"/>
    </vehicle>
    <vehicle id="1287" type="0" depart="60.50" departLane="free" departSpeed="max" fromTaz="3" toTaz="17">
        <route edges="-41389166#7 -545315834#2 -545315834#1 259871045#4 496493919#0 496493919#2 286847273#0 319713269#2 319713269#3 279032146#0 279032146#3 496332201#0 -160253722#7 -160253722#3"/>
    </vehicle>
    <vehicle id="1145" type="0" depart="62.13" departLane="free" departSpeed="max" fromTaz="18" toTaz="6">
        <route edges="160253722#1 160253722#4 286094874#0 286094877 286847289#0 24452783#0 496253679#0 gneE27 -203481580#3 286847309#4 41963902#6 496339477#6 496253677#22"/>
    </vehicle>
    <vehicle id="132" type="0" depart="62.89" departLane="free" departSpeed="max" fromTaz="1" toTaz="8">
        <route edges="-303889712#6 -303889712#3 -303889712#1 -303889712#0 259871068#0 107538207#0 107538207#2 496253685 365719024#0 319713269#10 319713269#2 24430153#0 306997497#0 286094870#0 286094870#3 286094870#7 286094870#11 286094870#15"/>
    </vehicle>
    <vehicle id="1090" type="0" depart="65.06" departLane="free" departSpeed="max" fromTaz="18" toTaz="4">
        <route edges="-160913587 -274022921#4 -274022921#3 -274022921#1 286094874#0 286094877 286847289#0 286847289#1 107538164#0 496332204#1 496332203#0"/>
    </vehicle>
    <vehicle id="753" type="0" depart="65.37" departLane="free" departSpeed="max" fromTaz="16" toTaz="13">
        <route edges="31794904#1 159315422#1 159315422#5 159315446#1 -307096544#1 -496339496#3 24452776 72871329#0 72871329#1 72871329#2 72871334#0 72871334#1"/>
    </vehicle>
    <vehicle id="1846" type="0" depart="66.43" departLane="free" departSpeed="max" fromTaz="9" toTaz="15">
        <route edges="-24452786#9 -24452786#6 -24452786#2 gneE28 160913587 304476025#4 304476025#7 304476025#12 160253726 41389178 -160253727 -307096544#5 -307096544#3 -71285598#7 159315422#8 -152086640#0"/>
    </vehicle>
    <vehicle id="529" type="0" depart="67.90" departLane="free" departSpeed="max" fromTaz="14" toTaz="2">
        <route edges="279365144#1 228022809#0 228022809#4 228022809#5 228022809#7 228022809#8 228022809#9 297757252#0 496257361 315886538#0 gneE23 497943357#0 303889712#1 303889712#2 306997514#7 306997514#10 571719005#0"/>
    </vehicle>
    <vehicle id="468" type="0" depart="70.08" departLane="free" departSpeed="max" fromTaz="14" toTaz="13">
        <route edges="-556031052#2 228022808#2 228022808#3 228022808#4 228022808#6 -279365144#3"/>
    </vehicle>
    <vehicle id="1169" type="0" depart="72.03" departLane="free" departSpeed="max" fromTaz="18" toTaz="8">
        <route edges="-160913587 gneE29 24452786#0 24452786#3 496253677#10 496253677#14 24452782#7"/>
    </vehicle>
    <vehicle id="714" type="0" depart="72.46" departLane="free" departSpeed="max" fromTaz="16" toTaz="11">
        <route edges="41389169#12 41389169#14 496332200#0 496332200#2 496332200#5 496332199#0 259871063#0 307097146 297896463#0 297896463#2 297896463#3 306997494 -561994814#3 -561994814#0 562025614#0 gneE21 228022818#0 315886539#0 315886539#2"/>
    </vehicle>
    <vehicle id="636" type="0" depart="74.03" departLane="free" departSpeed="max" fromTaz="14" toTaz="8">
        <route edges="81509011#0 228022808#4 228022808#6 286841509#0 286841509#3 -307097146 -31794905#4 319713269#8 319713269#10 107538204#0 -24452804 -286094881#1 286094878#0 24452782#4 -203481580#7 521131212#0 41963902#0 286847309#8 286847309#10"/>
    </vehicle>
    <vehicle id="369" type="0" depart="75.25" departLane="free" departSpeed="max" fromTaz="12" toTaz="8">
        <route edges="158783758#2 -81357763#0 496493905#3 111343195#0 111343195#3 521058769#0 -24452804 -286094881#1 286094878#0 24452782#4 24452782#6 24452782#7"/>
    </vehicle>
    <vehicle id="1204" type="0" depart="75.33" departLane="free" departSpeed="max" fromTaz="3" toTaz="10">
        <route edges="-161010072#5 -161010072#2 108037210#4 286847309#0 -496253680#3 -496253680#2 24452782#4 -504514704#6 -504514704#4 24452786#3 -496253677#9 27067557#0"/>
    </vehicle>
    <vehicle id="985" type="0" depart="76.03" departLane="free" departSpeed="max" fromTaz="18" toTaz="11">
        <route edges="160253722#1 159315422#0 31794904#3 496332196#0 496332196#1 496332199#0 259871063#0 307097146 297896463#0 297896463#2 297896463#3 306997494 -561994814#3 -561994814#0 562025614#0 gneE21 228022818#0 315886539#0 315886539#2"/>
    </vehicle>
    <vehicle id="576" type="0" depart="76.35" departLane="free" departSpeed="max" fromTaz="14" toTaz="4">
        <route edges="-556031052#2 -81509012#2 496249898#1 297757243#0 259871043#0 319713269#7 319713269#8 319713269#10 107538204#0 250710092#0 496253684#5 -552358549#4 38367679#0 41389166#0 496332204#0 -302240826#6"/>
    </vehicle>
    <vehicle id="1929" type="0" depart="78.04" departLane="free" departSpeed="max" fromTaz="9" toTaz="4">