<additional xmlns:xsi="http://www.w3.org/2001/XMLSchema-instance" xsi:noNamespaceSchemaLocation="http://sumo.dlr.de/xsd/additional_file.xsd">
<e1Detector id="Start_-111343195#2_0" lane="-111343195#2_0" pos="2.0" freq="60" file="NUL" friendlyPos="True"/>
<e1Detector id="Mid_-111343195#2_0" lane="-111343195#2_0" pos="93.830589526356" freq="60" file="NUL" friendlyPos="True"/>
<e1Detector id="End_-111343195#2_0" lane="-111343195#2_0" pos="-3" freq="60" file="NUL" friendlyPos="True"/>
<e1Detector id="Start_-111343195#5_0" lane="-111343195#5_0" pos="2.0" freq="60" file="NUL" friendlyPos="True"/>
<e1Detector id="Mid_-111343195#5_0" lane="-111343195#5_0" pos="80.93268377873365" freq="60" file="NUL" friendlyPos="True"/>
<e1Detector id="End_-111343195#5_0" lane="-111343195#5_0" pos="154.61180966312054" freq="60" file="NUL" friendlyPos="True"/>
<e1Detector id="Start_-152086640#0_0" lane="-152086640#0_0" pos="2.0" freq="60" file="NUL" friendlyPos="True"/>
<e1Detector id="Mid_-152086640#0_0" lane="-152086640#0_0" pos="28.820921703801975" freq="60" file="NUL" friendlyPos="True"/>
<e1Detector id="End_-152086640#0_0" lane="-152086640#0_0" pos="77.00098147852881" freq="60" file="NUL" friendlyPos="True"/>
<e1Detector id="Start_-152086640#4_0" lane="-152086640#4_0" pos="2.0" freq="60" file="NUL" friendlyPos="True"/>
<e1Detector id="Mid_-152086640#4_0" lane="-152086640#4_0" pos="44.27240604140191" freq="60" file="NUL" friendlyPos="True"/>
<e1Detector id="End_-152086640#4_0" lane="-152086640#4_0" pos="114.62154024203294" freq="60" file="NUL" friendlyPos="True"/>
<e1Detector id="Start_-152086640#6_0" lane="-152086640#6_0" pos="2.0" freq="60" file="NUL" friendlyPos="True"/>
<e1Detector id="Mid_-152086640#6_0" lane="-152086640#6_0" pos="35.343677735214065" freq="60" file="NUL" friendlyPos="True"/>
<e1Detector id="End_-152086640#6_0" lane="-152086640#6_0" pos="92.48570586017496" freq="60" file="NUL" friendlyPos="True"/>
<e1Detector id="Start_-158782352#5_0" lane="-158782352#5_0" pos="2.0" freq="60" file="NUL" friendlyPos="True"/>
<e1Detector id="Mid_-158782352#5_0" lane="-158782352#5_0" pos="22.501172181255225" freq="60" file="NUL" friendlyPos="True"/>
<e1Detector id="End_-158782352#5_0" lane="-158782352#5_0" pos="-3" freq="60" file="NUL" friendlyPos="True"/>
<e1Detector id="Start_-158783758#6_0" lane="-158783758#6_0" pos="2.0" freq="60" file="NUL" friendlyPos="True"/>
<e1Detector id="Mid_-158783758#6_0" lane="-158783758#6_0" pos="65.91479071498783" freq="60" file="NUL" friendlyPos="True"/>
<e1Detector id="End_-158783758#6_0" lane="-158783758#6_0" pos="128.69794155110145" freq="60" file="NUL" friendlyPos="True"/>
<e1Detector id="Start_-158783758#8_0" lane="-158783758#8_0" pos="2.0" freq="60" file="NUL" friendlyPos="True"/>
<e1Detector id="Mid_-158783758#8_0" lane="-158783758#8_0" pos="58.38571432262806" freq="60" file="NUL" friendlyPos="True"/>
<e1Detector id="End_-158783758#8_0" lane="-158783758#8_0" pos="97.09815337067907" freq="60" file="NUL" friendlyPos="True"/>
<e1Detector id="Start_-158783760#0_0" lane="-158783760#0_0" pos="2.0" freq="60" file="NUL" friendlyPos="True"/>
<e1Detector id="Mid_-158783760#0_0" lane="-158783760#0_0" pos="12.898403001921533" freq="60" file="NUL" friendlyPos="True"/>
<e1Detector id="End_-158783760#0_0" lane="-158783760#0_0" pos="23.796806003843066" freq="60" file="NUL" friendlyPos="True"/>
<e1Detector id="Start_-158783760#2_0" lane="-158783760#2_0" pos="2.0" freq="60" file="NUL" friendlyPos="True"/>
<e1Detector id="Mid_-158783760#2_0" lane="-158783760#2_0" pos="29.137025207462177" freq="60" file="NUL" friendlyPos="True"/>
<e1Detector id="End_-158783760#2_0" lane="-158783760#2_0" pos="-3" freq="60" file="NUL" friendlyPos="True"/>
<e1Detector id="Start_-158854903#1_0" lane="-158854903#1_0" pos="2.0" freq="60" file="NUL" friendlyPos="True"/>
<e1Detector id="Mid_-158854903#1_0" lane="-158854903#1_0" pos="45.280465874981374" freq="60" file="NUL" friendlyPos="True"/>
<e1Detector id="End_-158854903#1_0" lane="-158854903#1_0" pos="78.49111486678449" freq="60" file="NUL" friendlyPos="True"/>
<e1Detector id="Start_-158995079#1_0" lane="-158995079#1_0" pos="2.0" freq="60" file="NUL" friendlyPos="True"/>
<e1Detector id="Mid_-158995079#1_0" lane="-158995079#1_0" pos="116.94876068176117" freq="60" file="NUL" friendlyPos="True"/>
<e1Detector id="End_-158995079#1_0" lane="-158995079#1_0" pos="231.89752136352234" freq="60" file="NUL" friendlyPos="True"/>
<e1Detector id="Start_-159216680#2_0" lane="-159216680#2_0" pos="2.0" freq="60" file="NUL" friendlyPos="True"/>
<e1Detector id="Mid_-159216680#2_0" lane="-159216680#2_0" pos="53.08025396546012" freq="60" file="NUL" friendlyPos="True"/>
<e1Detector id="End_-159216680#2_0" lane="-159216680#2_0" pos="140.70409156715277" freq="60" file="NUL" friendlyPos="True"/>
<e1Detector id="Start_-159216680#4_0" lane="-159216680#4_0" pos="2.0" freq="60" file="NUL" friendlyPos="True"/>
<e1Detector id="Mid_-159216680#4_0" lane="-159216680#4_0" pos="55.42313684884802" freq="60" file="NUL" friendlyPos="True"/>
<e1Detector id="End_-159216680#4_0" lane="-159216680#4_0" pos="-3" freq="60" file="NUL" friendlyPos="True"/>
<e1Detector id="Start_-159244459#1_0" lane="-159244459#1_0" pos="2.0" freq="60" file="NUL" friendlyPos="True"/>
<e1Detector id="Mid_-159244459#1_0" lane="-159244459#1_0" pos="40.66414061535047" freq="60" file="NUL" friendlyPos="True"/>
<e1Detector id="End_-159244459#1_0" lane="-159244459#1_0" pos="-3" freq="60" file="NUL" friendlyPos="True"/>
<e1Detector id="Start_-159244459#2_0" lane="-159244459#2_0" pos="2.0" freq="60" file="NUL" friendlyPos="True"/>
<e1Detector id="Mid_-159244459#2_0" lane="-159244459#2_0" pos="37.54082111515993" freq="60" file="NUL" friendlyPos="True"/>
<e1Detector id="End_-159244459#2_0" lane="-159244459#2_0" pos="73.08164223031986" freq="60" file="NUL" friendlyPos="True"/>
<e1Detector id="Start_-159279412_0" lane="-159279412_0" pos="2.0" freq="60" file="NUL" friendlyPos="True"/>
<e1Detector id="Mid_-159279412_0" lane="-159279412_0" pos="58.83977313547281" freq="60" file="NUL" friendlyPos="True"/>
<e1Detector id="End_-159279412_0" lane="-159279412_0" pos="119.60526196214785" freq="60" file="NUL" friendlyPos="True"/>
<e1Detector id="Start_-159315422#0_0" lane="-159315422#0_0" pos="2.0" freq="60" file="NUL" friendlyPos="True"/>
<e1Detector id="Mid_-159315422#0_0" lane="-159315422#0_0" pos="55.196992442111515" freq="60" file="NUL" friendlyPos="True"/>
<e1Detector id="End_-159315422#0_0" lane="-159315422#0_0" pos="88.93883276044133" freq="60" file="NUL" friendlyPos="True"/>
<e1Detector id="Start_-159315422#10_0" lane="-159315422#10_0" pos="2.0" freq="60" file="NUL" friendlyPos="True"/>
<e1Detector id="Mid_-159315422#10_0" lane="-159315422#10_0" pos="76.35018826856154" freq="60" file="NUL" friendlyPos="True"/>
<e1Detector id="End_-159315422#10_0" lane="-159315422#10_0" pos="163.61303694152514" freq="60" file="NUL" friendlyPos="True"/>
<e1Detector id="Start_-159315422#4_0" lane="-159315422#4_0" pos="2.0" freq="60" file="NUL" friendlyPos="True"/>
<e1Detector id="Mid_-159315422#4_0" lane="-159315422#4_0" pos="93.74161316565777" freq="60" file="NUL" friendlyPos="True"/>
<e1Detector id="End_-159315422#4_0" lane="-159315422#4_0" pos="-3" freq="60" file="NUL" friendlyPos="True"/>
<e1Detector id="Start_-159315422#5_0" lane="-159315422#5_0" pos="2.0" freq="60" file="NUL" friendlyPos="True"/>
<e1Detector id="Mid_-159315422#5_0" lane="-159315422#5_0" pos="8.690432958139004" freq="60" file="NUL" friendlyPos="True"/>
<e1Detector id="End_-159315422#5_0" lane="-159315422#5_0" pos="15.380865916278214" freq="60" file="NUL" friendlyPos="True"/>
<e1Detector id="Start_-159315422#7_0" lane="-159315422#7_0" pos="2.0" freq="60" file="NUL" friendlyPos="True"/>
<e1Detector id="Mid_-159315422#7_0" lane="-159315422#7_0" pos="32.25817743512811" freq="60" file="NUL" friendlyPos="True"/>
<e1Detector id="End_-159315422#7_0" lane="-159315422#7_0" pos="72.22229015032855" freq="60" file="NUL" friendlyPos="True"/>
<e1Detector id="Start_-159315426#4_0" lane="-159315426#4_0" pos="2.0" freq="60" file="NUL" friendlyPos="True"/>
<e1Detector id="Mid_-159315426#4_0" lane="-159315426#4_0" pos="88.75414041048464" freq="60" file="NUL" friendlyPos="True"/>
<e1Detector id="End_-159315426#4_0" lane="-159315426#4_0" pos="184.05202696644682" freq="60" file="NUL" friendlyPos="True"/>
<e1Detector id="Start_-159315446#0_0" lane="-159315446#0_0" pos="2.0" freq="60" file="NUL" friendlyPos="True"/>
<e1Detector id="Mid_-159315446#0_0" lane="-159315446#0_0" pos="14.892791041306788" freq="60" file="NUL" friendlyPos="True"/>
<e1Detector id="End_-159315446#0_0" lane="-159315446#0_0" pos="-3" freq="60" file="NUL" friendlyPos="True"/>
<e1Detector id="Start_-159315446#2_0" lane="-159315446#2_0" pos="2.0" freq="60" file="NUL" friendlyPos="True"/>
<e1Detector id="Mid_-159315446#2_0" lane="-159315446#2_0" pos="55.53507866948317" freq="60" file="NUL" friendlyPos="True"/>
<e1Detector id="End_-159315446#2_0" lane="-159315446#2_0" pos="114.82424386689871" freq="60" file="NUL" friendlyPos="True"/>
<e1Detector id="Start_-160253722#0_0" lane="-160253722#0_0" pos="2.0" freq="60" file="NUL" friendlyPos="True"/>
<e1Detector id="Mid_-160253722#0_0" lane="-160253722#0_0" pos="4.702555156508691" freq="60" file="NUL" friendlyPos="True"/>
<e1Detector id="End_-160253722#0_0" lane="-160253722#0_0" pos="7.405110313017381" freq="60" file="NUL" friendlyPos="True"/>
<e1Detector id="Start_-160253722#0_1" lane="-160253722#0_1" pos="2.0" freq="60" file="NUL" friendlyPos="True"/>
<e1Detector id="Mid_-160253722#0_1" lane="-160253722#0_1" pos="4.702555156508691" freq="60" file="NUL" friendlyPos="True"/>
<e1Detector id="End_-160253722#0_1" lane="-160253722#0_1" pos="7.405110313015564" freq="60" file="NUL" friendlyPos="True"/>
<e1Detector id="Start_-160253722#3_0" lane="-160253722#3_0" pos="2.0" freq="60" file="NUL" friendlyPos="True"/>
<e1Detector id="Mid_-160253722#3_0" lane="-160253722#3_0" pos="61.01128924771172" freq="60" file="NUL" friendlyPos="True"/>
<e1Detector id="End_-160253722#3_0" lane="-160253722#3_0" pos="115.4850918792587" freq="60" file="NUL" friendlyPos="True"/>
<e1Detector id="Start_-160253722#3_1" lane="-160253722#3_1" pos="2.0" freq="60" file="NUL" friendlyPos="True"/>
<e1Detector id="Mid_-160253722#3_1" lane="-160253722#3_1" pos="61.0187849134801" freq="60" file="NUL" friendlyPos="True"/>
<e1Detector id="End_-160253722#3_1" lane="-160253722#3_1" pos="115.4950863201231" freq="60" file="NUL" friendlyPos="True"/>
<e1Detector id="Start_-160253722#7_0" lane="-160253722#7_0" pos="2.0" freq="60" file="NUL" friendlyPos="True"/>
<e1Detector id="Mid_-160253722#7_0" lane="-160253722#7_0" pos="95.03174070093291" freq="60" file="NUL" friendlyPos="True"/>
<e1Detector id="End_-160253722#7_0" lane="-160253722#7_0" pos="185.97687948725294" freq="60" file="NUL" friendlyPos="True"/>
<e1Detector id="Start_-160253722#7_1" lane="-160253722#7_1" pos="2.0" freq="60" file="NUL" friendlyPos="True"/>
<e1Detector id="Mid_-160253722#7_1" lane="-160253722#7_1" pos="95.03973644707014" freq="60" file="NUL" friendlyPos="True"/>
<e1Detector id="End_-160253722#7_1" lane="-160253722#7_1" pos="185.98687301934348" freq="60" file="NUL" friendlyPos="True"/>
<e1Detector id="Start_-160253727_0" lane="-160253727_0" pos="2.0" freq="60" file="NUL" friendlyPos="True"/>
<e1Detector id="Mid_-160253727_0" lane="-160253727_0" pos="2.352551806025099" freq="60" file="NUL" friendlyPos="True"/>
<e1Detector id="End_-160253727_0" lane="-160253727_0" pos="-3" freq="60" file="NUL" friendlyPos="True"/>
<e1Detector id="Start_-160321090_0" lane="-160321090_0" pos="2.0" freq="60" file="NUL" friendlyPos="True"/>
<e1Detector id="Mid_-160321090_0" lane="-160321090_0" pos="55.25409600201183" freq="60" file="NUL" friendlyPos="True"/>
<e1Detector id="End_-160321090_0" lane="-160321090_0" pos="-3" freq="60" file="NUL" friendlyPos="True"/>
<e1Detector id="Start_-160913587_0" lane="-160913587_0" pos="2.0" freq="60" file="NUL" friendlyPos="True"/>
<e1Detector id="Mid_-160913587_0" lane="-160913587_0" pos="80.4016513883843" freq="60" file="NUL" friendlyPos="True"/>
<e1Detector id="End_-160913587_0" lane="-160913587_0" pos="123.60658732587979" freq="60" file="NUL" friendlyPos="True"/>
<e1Detector id="Start_-161010065#9_0" lane="-161010065#9_0" pos="2.0" freq="60" file="NUL" friendlyPos="True"/>
<e1Detector id="Mid_-161010065#9_0" lane="-161010065#9_0" pos="114.45422420829568" freq="60" file="NUL" friendlyPos="True"/>
<e1Detector id="End_-161010065#9_0" lane="-161010065#9_0" pos="259.1933599346063" freq="60" file="NUL" friendlyPos="True"/>
<e1Detector id="Start_-161010072#2_0" lane="-161010072#2_0" pos="2.0" freq="60" file="NUL" friendlyPos="True"/>
<e1Detector id="Mid_-161010072#2_0" lane="-161010072#2_0" pos="48.02099984798411" freq="60" file="NUL" friendlyPos="True"/>
<e1Detector id="End_-161010072#2_0" lane="-161010072#2_0" pos="-3" freq="60" file="NUL" friendlyPos="True"/>
<e1Detector id="Start_-161010072#5_0" lane="-161010072#5_0" pos="2.0" freq="60" file="NUL" friendlyPos="True"/>
<e1Detector id="Mid_-161010072#5_0" lane="-161010072#5_0" pos="61.37175223031136" freq="60" file="NUL" friendlyPos="True"/>
<e1Detector id="End_-161010072#5_0" lane="-161010072#5_0" pos="139.8905235666285" freq="60" file="NUL" friendlyPos="True"/>
<e1Detector id="Start_-161036801#9_0" lane="-161036801#9_0" pos="2.0" freq="60" file="NUL" friendlyPos="True"/>
<e1Detector id="Mid_-161036801#9_0" lane="-161036801#9_0" pos="65.08514093171223" freq="60" file="NUL" friendlyPos="True"/>
<e1Detector id="End_-161036801#9_0" lane="-161036801#9_0" pos="116.16984546381437" freq="60" file="NUL" friendlyPos="True"/>
<e1Detector id="Start_-161036803#0_0" lane="-161036803#0_0" pos="2.0" freq="60" file="NUL" friendlyPos="True"/>
<e1Detector id="Mid_-161036803#0_0" lane="-161036803#0_0" pos="28.020662465393535" freq="60" file="NUL" friendlyPos="True"/>
<e1Detector id="End_-161036803#0_0" lane="-161036803#0_0" pos="-3" freq="60" file="NUL" friendlyPos="True"/>
<e1Detector id="Start_-161036803#3_0" lane="-161036803#3_0" pos="2.0" freq="60" file="NUL" friendlyPos="True"/>
<e1Detector id="Mid_-161036803#3_0" lane="-161036803#3_0" pos="76.06781004284738" freq="60" file="NUL" friendlyPos="True"/>
<e1Detector id="End_-161036803#3_0" lane="-161036803#3_0" pos="123.31079960805683" freq="60" file="NUL" friendlyPos="True"/>
<e1Detector id="Start_-203481580#0_0" lane="-203481580#0_0" pos="2.0" freq="60" file="NUL" friendlyPos="True"/>
<e1Detector id="Mid_-203481580#0_0" lane="-203481580#0_0" pos="52.509748618708734" freq="60" file="NUL" friendlyPos="True"/>
<e1Detector id="End_-203481580#0_0" lane="-203481580#0_0" pos="103.01949723741747" freq="60" file="NUL" friendlyPos="True"/>
<e1Detector id="Start_-203481580#3_0" lane="-203481580#3_0" pos="2.0" freq="60" file="NUL" friendlyPos="True"/>
<e1Detector id="Mid_-203481580#3_0" lane="-203481580#3_0" pos="149.7258055504276" freq="60" file="NUL" friendlyPos="True"/>
<e1Detector id="End_-203481580#3_0" lane="-203481580#3_0" pos="-3" freq="60" file="NUL" friendlyPos="True"/>
<e1Detector id="Start_-203481580#7_0" lane="-203481580#7_0" pos="2.0" freq="60" file="NUL" friendlyPos="True"/>
<e1Detector id="Mid_-203481580#7_0" lane="-203481580#7_0" pos="65.98466535878168" freq="60" file="NUL" friendlyPos="True"/>
<e1Detector id="End_-203481580#7_0" lane="-203481580#7_0" pos="155.4387326842019" freq="60" file="NUL" friendlyPos="True"/>
<e1Detector id="Start_-227913938#10_0" lane="-227913938#10_0" pos="2.0" freq="60" file="NUL" friendlyPos="True"/>
<e1Detector id="Mid_-227913938#10_0" lane="-227913938#10_0" pos="119.83422345057375" freq="60" file="NUL" friendlyPos="True"/>
<e1Detector id="End_-227913938#10_0" lane="-227913938#10_0" pos="238.09733584888647" freq="60" file="NUL" friendlyPos="True"/>
<e1Detector id="Start_-227913938#6_0" lane="-227913938#6_0" pos="2.0" freq="60" file="NUL" friendlyPos="True"/>
<e1Detector id="Mid_-227913938#6_0" lane="-227913938#6_0" pos="95.74345739831702" freq="60" file="NUL" friendlyPos="True"/>
<e1Detector id="End_-227913938#6_0" lane="-227913938#6_0" pos="-3" freq="60" file="NUL" friendlyPos="True"/>
<e1Detector id="Start_-228022792#1_0" lane="-228022792#1_0" pos="2.0" freq="60" file="NUL" friendlyPos="True"/>
<e1Detector id="Mid_-228022792#1_0" lane="-228022792#1_0" pos="39.51638021041475" freq="60" file="NUL" friendlyPos="True"/>
<e1Detector id="End_-228022792#1_0" lane="-228022792#1_0" pos="92.18430476553233" freq="60" file="NUL" friendlyPos="True"/>
<e1Detector id="Start_-228022792#1_1" lane="-228022792#1_1" pos="2.0" freq="60" file="NUL" friendlyPos="True"/>
<e1Detector id="Mid_-228022792#1_1" lane="-228022792#1_1" pos="39.530726811706685" freq="60" file="NUL" friendlyPos="True"/>
<e1Detector id="End_-228022792#1_1" lane="-228022792#1_1" pos="92.21565165644776" freq="60" file="NUL" friendlyPos="True"/>
<e1Detector id="Start_-24430153#1_0" lane="-24430153#1_0" pos="2.0" freq="60" file="NUL" friendlyPos="True"/>
<e1Detector id="Mid_-24430153#1_0" lane="-24430153#1_0" pos="84.8294246026293" freq="60" file="NUL" friendlyPos="True"/>
<e1Detector id="End_-24430153#1_0" lane="-24430153#1_0" pos="-3" freq="60" file="NUL" friendlyPos="True"/>
<e1Detector id="Start_-24452779#1_0" lane="-24452779#1_0" pos="2.0" freq="60" file="NUL" friendlyPos="True"/>
<e1Detector id="Mid_-24452779#1_0" lane="-24452779#1_0" pos="63.434440050834084" freq="60" file="NUL" friendlyPos="True"/>
<e1Detector id="End_-24452779#1_0" lane="-24452779#1_0" pos="-3" freq="60" file="NUL" friendlyPos="True"/>
<e1Detector id="Start_-24452782#3_0" lane="-24452782#3_0" pos="2.0" freq="60" file="NUL" friendlyPos="True"/>
<e1Detector id="Mid_-24452782#3_0" lane="-24452782#3_0" pos="149.07836658017246" freq="60" file="NUL" friendlyPos="True"/>
<e1Detector id="End_-24452782#3_0" lane="-24452782#3_0" pos="344.0097330705308" freq="60" file="NUL" friendlyPos="True"/>
<e1Detector id="Start_-24452782#5_0" lane="-24452782#5_0" pos="2.0" freq="60" file="NUL" friendlyPos="True"/>
<e1Detector id="Mid_-24452782#5_0" lane="-24452782#5_0" pos="51.45539122512534" freq="60" file="NUL" friendlyPos="True"/>
<e1Detector id="End_-24452782#5_0" lane="-24452782#5_0" pos="120.11995783211444" freq="60" file="NUL" friendlyPos="True"/>
<e1Detector id="Start_-24452782#6_0" lane="-24452782#6_0" pos="2.0" freq="60" file="NUL" friendlyPos="True"/>
<e1Detector id="Mid_-24452782#6_0" lane="-24452782#6_0" pos="128.98566897140626" freq="60" file="NUL" friendlyPos="True"/>
<e1Detector id="End_-24452782#6_0" lane="-24452782#6_0" pos="255.9713379428125" freq="60" file="NUL" friendlyPos="True"/>
<e1Detector id="Start_-24452782#8_0" lane="-24452782#8_0" pos="2.0" freq="60" file="NUL" friendlyPos="True"/>
<e1Detector id="Mid_-24452782#8_0" lane="-24452782#8_0" pos="68.49026942647349" freq="60" file="NUL" friendlyPos="True"/>
<e1Detector id="End_-24452782#8_0" lane="-24452782#8_0" pos="128.79999337060923" freq="60" file="NUL" friendlyPos="True"/>
<e1Detector id="Start_-24452783#5_0" lane="-24452783#5_0" pos="2.0" freq="60" file="NUL" friendlyPos="True"/>
<e1Detector id="Mid_-24452783#5_0" lane="-24452783#5_0" pos="74.21350790554698" freq="60" file="NUL" friendlyPos="True"/>
<e1Detector id="End_-24452783#5_0" lane="-24452783#5_0" pos="163.20133519250444" freq="60" file="NUL" friendlyPos="True"/>
<e1Detector id="Start_-24452786#2_0" lane="-24452786#2_0" pos="2.0" freq="60" file="NUL" friendlyPos="True"/>
<e1Detector id="Mid_-24452786#2_0" lane="-24452786#2_0" pos="57.33912392071439" freq="60" file="NUL" friendlyPos="True"/>
<e1Detector id="End_-24452786#2_0" lane="-24452786#2_0" pos="115.22317658551898" freq="60" file="NUL" friendlyPos="True"/>
<e1Detector id="Start_-24452786#6_0" lane="-24452786#6_0" pos="2.0" freq="60" file="NUL" friendlyPos="True"/>
<e1Detector id="Mid_-24452786#6_0" lane="-24452786#6_0" pos="92.2868154855218" freq="60" file="NUL" friendlyPos="True"/>
<e1Detector id="End_-24452786#6_0" lane="-24452786#6_0" pos="193.62395455551248" freq="60" file="NUL" friendlyPos="True"/>
<e1Detector id="Start_-24452786#9_0" lane="-24452786#9_0" pos="2.0" freq="60" file="NUL" friendlyPos="True"/>
<e1Detector id="Mid_-24452786#9_0" lane="-24452786#9_0" pos="67.07705459875437" freq="60" file="NUL" friendlyPos="True"/>
<e1Detector id="End_-24452786#9_0" lane="-24452786#9_0" pos="132.1539989584287" freq="60" file="NUL" friendlyPos="True"/>
<e1Detector id="Start_-24452804_0" lane="-24452804_0" pos="2.0" freq="60" file="NUL" friendlyPos="True"/>
<e1Detector id="Mid_-24452804_0" lane="-24452804_0" pos="49.35465530220069" freq="60" file="NUL" friendlyPos="True"/>
<e1Detector id="End_-24452804_0" lane="-24452804_0" pos="96.70931060441565" freq="60" file="NUL" friendlyPos="True"/>
<e1Detector id="Start_-259871063#1_0" lane="-259871063#1_0" pos="2.0" freq="60" file="NUL" friendlyPos="True"/>
<e1Detector id="Mid_-259871063#1_0" lane="-259871063#1_0" pos="80.74507069255574" freq="60" file="NUL" friendlyPos="True"/>
<e1Detector id="End_-259871063#1_0" lane="-259871063#1_0" pos="-3" freq="60" file="NUL" friendlyPos="True"/>
<e1Detector id="Start_-27067577#2_0" lane="-27067577#2_0" pos="2.0" freq="60" file="NUL" friendlyPos="True"/>
<e1Detector id="Mid_-27067577#2_0" lane="-27067577#2_0" pos="95.78743496399042" freq="60" file="NUL" friendlyPos="True"/>
<e1Detector id="End_-27067577#2_0" lane="-27067577#2_0" pos="154.54195480082117" freq="60" file="NUL" friendlyPos="True"/>
<e1Detector id="Start_-27067577#6_0" lane="-27067577#6_0" pos="2.0" freq="60" file="NUL" friendlyPos="True"/>
<e1Detector id="Mid_-27067577#6_0" lane="-27067577#6_0" pos="121.01412128796647" freq="60" file="NUL" friendlyPos="True"/>
<e1Detector id="End_-27067577#6_0" lane="-27067577#6_0" pos="232.97067107955195" freq="60" file="NUL" friendlyPos="True"/>
<e1Detector id="Start_-274022921#1_0" lane="-274022921#1_0" pos="2.0" freq="60" file="NUL" friendlyPos="True"/>
<e1Detector id="Mid_-274022921#1_0" lane="-274022921#1_0" pos="114.64825839052001" freq="60" file="NUL" friendlyPos="True"/>
<e1Detector id="End_-274022921#1_0" lane="-274022921#1_0" pos="223.95238071862875" freq="60" file="NUL" friendlyPos="True"/>
<e1Detector id="Start_-274022921#3_0" lane="-274022921#3_0" pos="2.0" freq="60" file="NUL" friendlyPos="True"/>
<e1Detector id="Mid_-274022921#3_0" lane="-274022921#3_0" pos="9.212745237830278" freq="60" file="NUL" friendlyPos="True"/>
<e1Detector id="End_-274022921#3_0" lane="-274022921#3_0" pos="16.36220399516778" freq="60" file="NUL" friendlyPos="True"/>
<e1Detector id="Start_-274022921#4_0" lane="-274022921#4_0" pos="2.0" freq="60" file="NUL" friendlyPos="True"/>
<e1Detector id="Mid_-274022921#4_0" lane="-274022921#4_0" pos="49.09352019360859" freq="60" file="NUL" friendlyPos="True"/>
<e1Detector id="End_-274022921#4_0" lane="-274022921#4_0" pos="-3" freq="60" file="NUL" friendlyPos="True"/>
<e1Detector id="Start_-274022921#6_0" lane="-274022921#6_0" pos="2.0" freq="60" file="NUL" friendlyPos="True"/>
<e1Detector id="Mid_-274022921#6_0" lane="-274022921#6_0" pos="88.01955676193934" freq="60" file="NUL" friendlyPos="True"/>
<e1Detector id="End_-274022921#6_0" lane="-274022921#6_0" pos="182.13669913863163" freq="60" file="NUL" friendlyPos="True"/>
<e1Detector id="Start_-279032146#2_0" lane="-279032146#2_0" pos="2.0" freq="60" file="NUL" friendlyPos="True"/>
<e1Detector id="Mid_-279032146#2_0" lane="-279032146#2_0" pos="68.52468727693707" freq="60" file="NUL" friendlyPos="True"/>
<e1Detector id="End_-279032146#2_0" lane="-279032146#2_0" pos="133.89444694484737" freq="60" file="NUL" friendlyPos="True"/>
<e1Detector id="Start_-279032146#4_0" lane="-279032146#4_0" pos="2.0" freq="60" file="NUL" friendlyPos="True"/>
<e1Detector id="Mid_-279032146#4_0" lane="-279032146#4_0" pos="67.11922608268375" freq="60" file="NUL" friendlyPos="True"/>
<e1Detector id="End_-279032146#4_0" lane="-279032146#4_0" pos="-3" freq="60" file="NUL" friendlyPos="True"/>
<e1Detector id="Start_-279365144#3_0" lane="-279365144#3_0" pos="2.0" freq="60" file="NUL" friendlyPos="True"/>
<e1Detector id="Mid_-279365144#3_0" lane="-279365144#3_0" pos="122.02783852934252" freq="60" file="NUL" friendlyPos="True"/>
<e1Detector id="End_-279365144#3_0" lane="-279365144#3_0" pos="209.14271281951216" freq="60" file="NUL" friendlyPos="True"/>
<e1Detector id="Start_-286094870#10_0" lane="-286094870#10_0" pos="2.0" freq="60" file="NUL" friendlyPos="True"/>
<e1Detector id="Mid_-286094870#10_0" lane="-286094870#10_0" pos="51.03219631991888" freq="60" file="NUL" friendlyPos="True"/>
<e1Detector id="End_-286094870#10_0" lane="-286094870#10_0" pos="-3" freq="60" file="NUL" friendlyPos="True"/>
<e1Detector id="Start_-286094870#14_0" lane="-286094870#14_0" pos="2.0" freq="60" file="NUL" friendlyPos="True"/>
<e1Detector id="Mid_-286094870#14_0" lane="-286094870#14_0" pos="110.45078347194516" freq="60" file="NUL" friendlyPos="True"/>
<e1Detector id="End_-286094870#14_0" lane="-286094870#14_0" pos="225.16536751915572" freq="60" file="NUL" friendlyPos="True"/>
<e1Detector id="Start_-286094870#18_0" lane="-286094870#18_0" pos="2.0" freq="60" file="NUL" friendlyPos="True"/>
<e1Detector id="Mid_-286094870#18_0" lane="-286094870#18_0" pos="70.11658169114693" freq="60" file="NUL" friendlyPos="True"/>
<e1Detector id="End_-286094870#18_0" lane="-286094870#18_0" pos="130.76973814577522" freq="60" file="NUL" friendlyPos="True"/>
<e1Detector id="Start_-286094870#2_0" lane="-286094870#2_0" pos="2.0" freq="60" file="NUL" friendlyPos="True"/>
<e1Detector id="Mid_-286094870#2_0" lane="-286094870#2_0" pos="57.14237511821326" freq="60" file="NUL" friendlyPos="True"/>
<e1Detector id="End_-286094870#2_0" lane="-286094870#2_0" pos="117.1580744579306" freq="60" file="NUL" friendlyPos="True"/>
<e1Detector id="Start_-286094870#6_0" lane="-286094870#6_0" pos="2.0" freq="60" file="NUL" friendlyPos="True"/>
<e1Detector id="Mid_-286094870#6_0" lane="-286094870#6_0" pos="93.06367578487058" freq="60" file="NUL" friendlyPos="True"/>
<e1Detector id="End_-286094870#6_0" lane="-286094870#6_0" pos="196.22550575109787" freq="60" file="NUL" friendlyPos="True"/>
<e1Detector id="Start_-286094874#4_0" lane="-286094874#4_0" pos="2.0" freq="60" file="NUL" friendlyPos="True"/>
<e1Detector id="Mid_-286094874#4_0" lane="-286094874#4_0" pos="150.73118975025685" freq="60" file="NUL" friendlyPos="True"/>
<e1Detector id="End_-286094874#4_0" lane="-286094874#4_0" pos="293.1656654442405" freq="60" file="NUL" friendlyPos="True"/>
<e1Detector id="Start_-286094874#4_1" lane="-286094874#4_1" pos="2.0" freq="60" file="NUL" friendlyPos="True"/>
<e1Detector id="Mid_-286094874#4_1" lane="-286094874#4_1" pos="150.75694244433032" freq="60" file="NUL" friendlyPos="True"/>
<e1Detector id="End_-286094874#4_1" lane="-286094874#4_1" pos="293.1759301275001" freq="60" file="NUL" friendlyPos="True"/>
<e1Detector id="Start_-286094877_0" lane="-286094877_0" pos="2.0" freq="60" file="NUL" friendlyPos="True"/>
<e1Detector id="Mid_-286094877_0" lane="-286094877_0" pos="116.04069393966745" freq="60" file="NUL" friendlyPos="True"/>
<e1Detector id="End_-286094877_0" lane="-286094877_0" pos="230.08138787933663" freq="60" file="NUL" friendlyPos="True"/>
<e1Detector id="Start_-286094877_1" lane="-286094877_1" pos="2.0" freq="60" file="NUL" friendlyPos="True"/>
<e1Detector id="Mid_-286094877_1" lane="-286094877_1" pos="116.04069393966921" freq="60" file="NUL" friendlyPos="True"/>
<e1Detector id="End_-286094877_1" lane="-286094877_1" pos="230.08138787933842" freq="60" file="NUL" friendlyPos="True"/>
<e1Detector id="Start_-286094881#1_0" lane="-286094881#1_0" pos="2.0" freq="60" file="NUL" friendlyPos="True"/>
<e1Detector id="Mid_-286094881#1_0" lane="-286094881#1_0" pos="64.73449486171202" freq="60" file="NUL" friendlyPos="True"/>
<e1Detector id="End_-286094881#1_0" lane="-286094881#1_0" pos="-3" freq="60" file="NUL" friendlyPos="True"/>
<e1Detector id="Start_-286361759#1_0" lane="-286361759#1_0" pos="2.0" freq="60" file="NUL" friendlyPos="True"/>
<e1Detector id="Mid_-286361759#1_0" lane="-286361759#1_0" pos="74.7243211216954" freq="60" file="NUL" friendlyPos="True"/>
<e1Detector id="End_-286361759#1_0" lane="-286361759#1_0" pos="189.56115133914" freq="60" file="NUL" friendlyPos="True"/>
<e1Detector id="Start_-286841509#2_0" lane="-286841509#2_0" pos="2.0" freq="60" file="NUL" friendlyPos="True"/>
<e1Detector id="Mid_-286841509#2_0" lane="-286841509#2_0" pos="53.8281768410665" freq="60" file="NUL" friendlyPos="True"/>
<e1Detector id="End_-286841509#2_0" lane="-286841509#2_0" pos="154.99840752663084" freq="60" file="NUL" friendlyPos="True"/>
<e1Detector id="Start_-286841509#4_0" lane="-286841509#4_0" pos="2.0" freq="60" file="NUL" friendlyPos="True"/>
<e1Detector id="Mid_-286841509#4_0" lane="-286841509#4_0" pos="60.51625543718426" freq="60" file="NUL" friendlyPos="True"/>
<e1Detector id="End_-286841509#4_0" lane="-286841509#4_0" pos="96.02224233556518" freq="60" file="NUL" friendlyPos="True"/>
<e1Detector id="Start_-286847289#0_0" lane="-286847289#0_0" pos="2.0" freq="60" file="NUL" friendlyPos="True"/>
<e1Detector id="Mid_-286847289#0_0" lane="-286847289#0_0" pos="88.35768571550595" freq="60" file="NUL" friendlyPos="True"/>
<e1Detector id="End_-286847289#0_0" lane="-286847289#0_0" pos="174.71537143101014" freq="60" file="NUL" friendlyPos="True"/>
<e1Detector id="Start_-286847289#0_1" lane="-286847289#0_1" pos="2.0" freq="60" file="NUL" friendlyPos="True"/>
<e1Detector id="Mid_-286847289#0_1" lane="-286847289#0_1" pos="88.35768571550419" freq="60" file="NUL" friendlyPos="True"/>
<e1Detector id="End_-286847289#0_1" lane="-286847289#0_1" pos="174.71537143101014" freq="60" file="NUL" friendlyPos="True"/>
<e1Detector id="Start_-286847301#1_0" lane="-286847301#1_0" pos="2.0" freq="60" file="NUL" friendlyPos="True"/>
<e1Detector id="Mid_-286847301#1_0" lane="-286847301#1_0" pos="48.72364713320697" freq="60" file="NUL" friendlyPos="True"/>