<additional>

<tazs>
   <taz id="1" edges="-306997496#1 -303889712#6 -571719005#1 158895309#2 158782352#4">
   </taz>
   <taz id="2" edges="-41389166#7 302240826#4 -496332203#2 -161010072#5">
   </taz>
   <taz id="3" edges="-496339475#2 -496339476#3 -41963902#10 -496253677#23">
   </taz>
   <taz id="4" edges="228022815#0 -521131212#2 -24452782#8 -286094870#18">
   </taz>
   <taz id="5" edges="-24452786#9 159307912 499302825#0 496253674#0 227913938#0">
   </taz>
   <taz id="6" edges="72871329#0 286847288#0 24452776 72871329#1 72871329#2 72871329#5 72871329#6">
   </taz>
   <taz id="7" edges="-279365144#3 496257364#1 306974310#0 306974310#1 -81509011#2">
   </taz>
   <taz id="8" edges="319713269#8 319713269#10 319713269#2 319713269#3 319713269#4 319713269#5 319713269#7">
   </taz>
   <taz id="9" edges="41389178 160253726 286852568 107538178#0 307096544#4 -307096544#5 -160253722#3 160253722#1 -31794904#2 31794904#1">
   </taz>
   
</tazs>

</additional>