<?xml version="1.0" encoding="UTF-8"?>

<!-- generated on 2023-04-28 11:16:23 by Eclipse SUMO duarouter Version 1.14.0
<configuration xmlns:xsi="http://www.w3.org/2001/XMLSchema-instance" xsi:noNamespaceSchemaLocation="http://sumo.dlr.de/xsd/duarouterConfiguration.xsd">

    <input>
        <net-file value="Tainan.net.xml"/>
        <additional-files value="vtype.xml"/>
        <route-files value="od_file.odtrips.xml"/>
    </input>

    <output>
        <output-file value="rou5/od_route_file.odtrips39.rou.xml"/>
    </output>

</configuration>
-->

<routes xmlns:xsi="http://www.w3.org/2001/XMLSchema-instance" xsi:noNamespaceSchemaLocation="http://sumo.dlr.de/xsd/routes_file.xsd">
    <vType id="0" speedFactor="normc(0.95,0.10,0.60,1.50)"/>
    <vehicle id="162" type="0" depart="2.31" departLane="free" departSpeed="max" fromTaz="12" toTaz="10">
        <route edges="162442431#0 162442431#4 -315886536#3 497943357#0 -303889712#0 259871068#0 107538207#0 107538207#2 496253685 365719024#0 319713269#10 319713269#2 24430153#0 306997497#0 286094870#0 286094870#3 -27067577#2 24452786#0 24452786#3 -496253677#9 27067557#0"/>
    </vehicle>
    <vehicle id="1563" type="0" depart="2.60" departLane="free" departSpeed="max" fromTaz="7" toTaz="13">
        <route edges="-286094870#18 -286094870#14 -286094870#10 -286094870#6 -286094870#2 -306997497#2 -24430153#1 319713269#3 319713269#4 319713269#5 72871326#0 259871042#0 297757244#0 297757244#1 228022791 24452776 72871329#0 72871329#1 72871329#2 72871334#0 72871334#1"/>
    </vehicle>
    <vehicle id="1395" type="0" depart="2.64" departLane="free" departSpeed="max" fromTaz="5" toTaz="13">
        <route edges="-496339476#3 -496253680#6 -496253680#3 -496253680#2 -24452782#3 286094881#0 24452804 -521058769#1 -111343195#5 -111343195#2 -297896463#3 -297896463#2 -297896463#1 -286841509#4 -286841509#2 306974310#0 306974310#1 -81509011#2"/>
    </vehicle>
    <vehicle id="1479" type="0" depart="4.12" departLane="free" departSpeed="max" fromTaz="5" toTaz="8">
        <route edges="-496339475#2 297757248#0 -496253680#6 286847309#2 286847309#4 286847309#8 -496253677#19 521131212#2"/>
    </vehicle>
    <vehicle id="1726" type="0" depart="4.21" departLane="free" departSpeed="max" fromTaz="7" toTaz="6">
        <route edges="228022815#0 496253677#21 496253677#22"/>
    </vehicle>
    <vehicle id="1131" type="0" depart="4.28" departLane="free" departSpeed="max" fromTaz="18" toTaz="6">
        <route edges="-160913587 gneE29 24452786#0 504514704#0 504514704#5 -203481580#7 521131212#0 41963902#0 41963902#6 41963902#7"/>
    </vehicle>
    <vehicle id="1798" type="0" depart="5.07" departLane="free" departSpeed="max" fromTaz="9" toTaz="13">
        <route edges="159307912 -496253677#2 -496253677#0 -24452779#1 227913938#7 304476025#0 304476025#4 304476025#7 304476025#12 160253726 41389178 -160253727 -307096544#5 -307096544#3 -307096544#1 -496339496#3 24452776 72871329#0 286847288#0 228022792#0"/>
    </vehicle>
    <vehicle id="741" type="0" depart="5.20" departLane="free" departSpeed="max" fromTaz="16" toTaz="13">
        <route edges="152086640#0 152086640#1 -496249903#0 81509012#1 228022808#2 228022808#3 228022808#4 228022808#6 -279365144#3"/>
    </vehicle>
    <vehicle id="132" type="0" depart="5.68" departLane="free" departSpeed="max" fromTaz="1" toTaz="8">
        <route edges="158895309#2 306997492#0 161036803#0 161036803#1 259871045#4 496493914 38367679#0 38367679#2 108037210#0 108037210#1 108037210#4 286847309#0 286847309#2 286847309#4 286847309#8 286847309#10"/>
    </vehicle>
    <vehicle id="897" type="0" depart="6.25" departLane="free" departSpeed="max" fromTaz="16" toTaz="8">
        <route edges="31794904#1 -159315422#0 160253722#4 286094874#0 286094877 286847289#0 24452783#0 496253679#0 gneE27 521131212#0 41963902#0 286847309#8 286847309#10"/>
    </vehicle>
    <vehicle id="1141" type="0" depart="6.57" departLane="free" departSpeed="max" fromTaz="18" toTaz="6">
        <route edges="-160913587 gneE29 24452786#0 24452786#3 496253677#10 496253677#14 496253677#18 496253677#19 496253677#21 496253677#22"/>
    </vehicle>
    <vehicle id="450" type="0" depart="7.46" departLane="free" departSpeed="max" fromTaz="14" toTaz="11">
        <route edges="81509011#0 228022808#4 228022808#6 228022809#0 228022809#4 228022809#5 228022809#7 228022809#8 228022809#9 297757252#0 -496257360#5 -496257360#3 306997515#4"/>
    </vehicle>
    <vehicle id="1386" type="0" depart="7.50" departLane="free" departSpeed="max" fromTaz="5" toTaz="11">
        <route edges="-496253677#23 -496339477#7 -41963902#6 228022815#4 228022815#5 228022815#6 286847307#0 286847307#2 286847310#0 496493917#0 250710099#0 250710099#3 496493902 259871069#0 315886537#0 228022818#0 315886539#0 315886539#2"/>
    </vehicle>
    <vehicle id="154" type="0" depart="7.62" departLane="free" departSpeed="max" fromTaz="1" toTaz="8">
        <route edges="-303889712#6 -303889712#3 -303889712#1 -303889712#0 259871068#0 298812493#0 298812493#1 496493914 38367679#0 38367679#2 108037210#0 108037210#1 108037210#4 286847309#0 286847309#2 286847309#4 286847309#8 286847309#10"/>
    </vehicle>
    <vehicle id="1529" type="0" depart="9.00" departLane="free" departSpeed="max" fromTaz="7" toTaz="11">
        <route edges="-286094870#18 -286094870#14 -286094870#10 -286094870#6 -286094870#2 -306997497#2 -24430153#1 319713269#3 319713269#4 319713269#5 319713269#7 31794905#0 307097146 297896463#0 297896463#2 297896463#3 306997494 -561994814#3 -561994814#0 562025614#0 gneE21 228022818#0 315886539#0 315886539#2"/>
    </vehicle>
    <vehicle id="397" type="0" depart="9.30" departLane="free" departSpeed="max" fromTaz="12" toTaz="8">
        <route edges="158783758#2 -81357763#0 496493905#3 111343195#0 111343195#3 521058769#0 -24452804 -286094881#1 286094878#0 24452782#4 24452782#6 496253677#18 521131212#2"/>
    </vehicle>
    <vehicle id="1997" type="0" depart="9.96" departLane="free" departSpeed="max" fromTaz="9" toTaz="8">
        <route edges="499302825#0 496253677#1 496253677#5 496253677#10 496253677#14 24452782#7"/>
    </vehicle>
    <vehicle id="1552" type="0" depart="10.29" departLane="free" departSpeed="max" fromTaz="7" toTaz="13">
        <route edges="-24452782#8 -496253677#17 -286094870#14 -286094870#10 -286094870#6 -286094870#2 -306997497#2 -24430153#1 319713269#3 319713269#4 319713269#5 72871326#0 259871042#0 297757244#0 297757244#1 228022791 24452776 72871329#0 286847288#0 228022792#0"/>
    </vehicle>
    <vehicle id="1033" type="0" depart="10.43" departLane="free" departSpeed="max" fromTaz="18" toTaz="15">
        <route edges="-160913587 -274022921#4 -274022921#3 -274022921#1 -160253722#7 159315422#0 -31794904#2"/>
    </vehicle>
    <vehicle id="1656" type="0" depart="10.52" departLane="free" departSpeed="max" fromTaz="7" toTaz="2">
        <route edges="-24452782#8 -24452782#6 -24452782#5 -24452782#3 286094881#0 24452804 -521058769#1 250710098#0 250710098#1 250710098#2 496493902 303889712#0 303889712#1 303889712#2 303889712#5"/>
    </vehicle>
    <vehicle id="948" type="0" depart="10.63" departLane="free" departSpeed="max" fromTaz="18" toTaz="10">
        <route edges="-160913587 274022921#5 -227913938#10 -227913938#6"/>
    </vehicle>
    <vehicle id="726" type="0" depart="10.87" departLane="free" departSpeed="max" fromTaz="16" toTaz="11">
        <route edges="-71285598#7 -71285598#6 -71285598#5 -496249903#1 152086640#5 297757247#0 297757247#3 297896463#0 297896463#2 297896463#3 306997494 -561994814#3 -561994814#0 562025614#0 gneE21 228022818#0 315886539#0 315886539#2"/>
    </vehicle>
    <vehicle id="857" type="0" depart="11.31" departLane="free" departSpeed="max" fromTaz="16" toTaz="6">
        <route edges="31794904#1 -159315422#0 160253722#4 286094874#0 286094877 286847289#0 24452783#0 496253679#0 gneE27 -203481580#3 286847309#4 41963902#6 496339477#6 496253677#22"/>
    </vehicle>
    <vehicle id="850" type="0" depart="12.18" departLane="free" departSpeed="max" fromTaz="16" toTaz="6">
        <route edges="159315419 496249898#1 297757243#0 259871043#0 319713269#7 319713269#8 319713269#10 107538204#0 -24452804 -286094881#1 286094878#0 496253680#0 gneE27 -203481580#3 286847309#4 41963902#6 496339477#6 496253677#22"/>
    </vehicle>
    <vehicle id="213" type="0" depart="12.73" departLane="free" departSpeed="max" fromTaz="12" toTaz="13">
        <route edges="-gneE5 496257360#4 315886539#2 279365155#0 279365155#1 279365155#2 279365155#3 279365155#4 279365155#5 496257364#0 496257364#1 306974310#0 306974310#1 306974310#2 306974310#3 306974310#4 228022810 72871329#5 72871329#6 72871329#0 72871329#1 72871329#2 72871334#0 72871334#1"/>
    </vehicle>
    <vehicle id="1614" type="0" depart="13.21" departLane="free" departSpeed="max" fromTaz="7" toTaz="17">
        <route edges="228022815#0 -496253677#19 -496253677#18 -496253677#17 -286094870#14 -286094870#10 -286094870#6 -286094870#2 -286094874#4 -160253722#7 -160253722#3"/>
    </vehicle>
    <vehicle id="1960" type="0" depart="13.41" departLane="free" departSpeed="max" fromTaz="9" toTaz="6">
        <route edges="-24452786#9 -24452786#6 -24452786#2 27067577#0 27067577#3 496253680#0 496253680#3 228022815#6 286847301#0 496339475#0"/>
    </vehicle>
    <vehicle id="965" type="0" depart="15.25" departLane="free" departSpeed="max" fromTaz="18" toTaz="11">
        <route edges="-160913587 -274022921#4 -274022921#3 -274022921#1 -496332201#4 -279032146#4 -279032146#2 319713269#4 319713269#5 319713269#7 31794905#0 307097146 297896463#0 297896463#2 297896463#3 306997494 -561994814#3 -561994814#0 562025614#0 gneE21 228022818#0 315886539#0 -496257360#5 gneE5"/>
    </vehicle>
    <vehicle id="1990" type="0" depart="15.58" departLane="free" departSpeed="max" fromTaz="9" toTaz="8">
        <route edges="159307912 496253677#5 496253677#10 496253677#14 496253677#18 496253677#19 286847309#10"/>
    </vehicle>
    <vehicle id="155" type="0" depart="15.75" departLane="free" departSpeed="max" fromTaz="12" toTaz="10">
        <route edges="162442431#0 162442431#4 -315886536#3 497943357#0 -303889712#0 259871068#0 107538207#0 107538207#2 496253685 365719024#0 319713269#10 319713269#2 24430153#0 306997497#0 286094870#0 286094870#3 -27067577#2 24452786#0 24452786#3 -496253677#9 -496253677#2 -499302825#3"/>
    </vehicle>
    <vehicle id="239" type="0" depart="16.15" departLane="free" departSpeed="max" fromTaz="12" toTaz="15">
        <route edges="162442431#0 496257360#1 496257360#4 496257361 315886538#0 gneE22 -562025614#0 561994814#0 561994814#1 -306997494 -297896463#3 -297896463#2 -297896463#1 -297757247#3 -297757247#2 -152086640#6 -152086640#4 -152086640#0"/>
    </vehicle>
    <vehicle id="287" type="0" depart="16.57" departLane="free" departSpeed="max" fromTaz="12" toTaz="2">
        <route edges="-gneE5 161036801#7 497943357#0 303889712#1 303889712#2 306997514#7 306997514#10 571719005#0"/>
    </vehicle>
    <vehicle id="1978" type="0" depart="16.62" departLane="free" departSpeed="max" fromTaz="9" toTaz="6">
        <route edges="496253674#0 496253677#0 496253677#1 496253677#5 496253677#10 496253677#14 496253677#18 496253677#19 496253677#21 496253677#22"/>
    </vehicle>
    <vehicle id="211" type="0" depart="16.97" departLane="free" departSpeed="max" fromTaz="12" toTaz="13">
        <route edges="-gneE5 496257360#4 315886539#2 279365155#0 279365155#1 279365155#2 279365155#3 279365155#4 279365155#5 496257364#0 496257364#1 306974310#0 306974310#1 306974310#2 306974310#3 306974310#4 228022810 72871329#5 72871329#6 72871329#0 286847288#0 228022792#0"/>
    </vehicle>
    <vehicle id="644" type="0" depart="17.04" departLane="free" departSpeed="max" fromTaz="14" toTaz="8">
        <route edges="279365144#1 286841509#0 286841509#3 -307097146 -31794905#4 319713269#8 319713269#10 107538204#0 -24452804 -286094881#1 286094878#0 24452782#4 24452782#6 496253677#18 521131212#2"/>
    </vehicle>
    <vehicle id="45" type="0" depart="18.20" departLane="free" departSpeed="max" fromTaz="1" toTaz="11">
        <route edges="158782352#4 306997513#5 259871045#1 -161036803#3 -161036803#0 -497943357#6 -497943357#4 -497943357#2 gneE24 228022818#0 315886539#0 315886539#2"/>
    </vehicle>
    <vehicle id="1193" type="0" depart="20.10" departLane="free" departSpeed="max" fromTaz="3" toTaz="10">
        <route edges="-496332203#2 -496332204#1 302240826#7 -496253672 -286847289#0 -286094877 -286094874#4 274022921#0 274022921#2 274022921#4 274022921#5 -227913938#10 -227913938#6"/>
    </vehicle>
    <vehicle id="1110" type="0" depart="21.92" departLane="free" departSpeed="max" fromTaz="18" toTaz="4">
        <route edges="160253722#1 160253722#4 286094874#0 286094877 286847289#0 24452783#0 161010065#0 161010072#1 161010072#3"/>
    </vehicle>
    <vehicle id="1418" type="0" depart="21.98" departLane="free" departSpeed="max" fromTaz="5" toTaz="15">
        <route edges="-496253677#23 -496253677#21 -496253677#19 -496253677#18 -496253677#17 -286094870#14 -286094870#10 -286094870#6 -286094870#2 -286094874#4 -160253722#7 159315422#0 -31794904#2"/>
    </vehicle>
    <vehicle id="1885" type="0" depart="23.88" departLane="free" departSpeed="max" fromTaz="9" toTaz="17">
        <route edges="159307912 -496253677#2 -496253677#0 -24452779#1 227913938#7 -274022921#6 160913587"/>
    </vehicle>
    <vehicle id="1038" type="0" depart="24.06" departLane="free" departSpeed="max" fromTaz="18" toTaz="15">
        <route edges="-160913587 -274022921#4 -274022921#3 -274022921#1 -496332197#5 -41389173#1 -496332200#4 -496332200#1 -41389169#14 -41389169#13"/>
    </vehicle>
    <vehicle id="1151" type="0" depart="24.69" departLane="free" departSpeed="max" fromTaz="18" toTaz="8">
        <route edges="-160913587 gneE29 24452786#0 24452786#3 496253677#10 496253677#14 496253677#18 496253677#19 286847309#10"/>
    </vehicle>
    <vehicle id="1116" type="0" depart="25.85" departLane="free" departSpeed="max" fromTaz="18" toTaz="6">
        <route edges="-160913587 gneE29 24452786#0 504514704#0 504514704#5 -203481580#7 521131212#0 41963902#0 41963902#6 41963902#7"/>
    </vehicle>
    <vehicle id="110" type="0" depart="28.24" departLane="free" departSpeed="max" fromTaz="1" toTaz="2">
        <route edges="-306997496#1 306997514#0 306997514#7 306997514#10 306997514#13 306997513#1 -158782352#5"/>
    </vehicle>
    <vehicle id="795" type="0" depart="30.21" departLane="free" departSpeed="max" fromTaz="16" toTaz="2">
        <route edges="152086640#0 152086640#1 152086640#5 297757243#0 259871063#0 307097147#0 307097147#3 536826453 496253687#1 303889712#0 303889712#1 303889712#2 303889712#5"/>
    </vehicle>
    <vehicle id="252" type="0" depart="34.48" departLane="free" departSpeed="max" fromTaz="12" toTaz="17">
        <route edges="162442431#0 162442431#4 -315886536#3 497943357#0 -303889712#0 259871068#0 107538207#0 107538207#2 496253685 365719024#0 319713269#10 319713269#2 319713269#3 279032146#0 279032146#3 496332201#0 274022921#0 274022921#2 274022921#4 160913587"/>
    </vehicle>
    <vehicle id="488" type="0" depart="35.97" departLane="free" departSpeed="max" fromTaz="14" toTaz="15">
        <route edges="-556031052#2 -81509012#2 297757244#1"/>
    </vehicle>
    <vehicle id="152" type="0" depart="36.22" departLane="free" departSpeed="max" fromTaz="1" toTaz="8">
        <route edges="-303889712#6 -303889712#3 -303889712#1 -303889712#0 259871068#0 107538207#0 107538207#2 496253684#0 496253684#5 496253682#0 -286847289#0 286094878#0 24452782#4 24452782#6 24452782#7"/>
    </vehicle>
    <vehicle id="1688" type="0" depart="36.37" departLane="free" departSpeed="max" fromTaz="7" toTaz="4">
        <route edges="-24452782#8 496253677#18 -521131212#1 -521131212#0 -203481580#3 228022815#5 228022815#6 286847307#0 161010072#1 -546374573#4 496332203#0"/>
    </vehicle>
    <vehicle id="667" type="0" depart="37.18" departLane="free" departSpeed="max" fromTaz="16" toTaz="10">
        <route edges="31794904#1 -159315422#0 -160253722#3 -160253722#0 286852568 -304476025#12 -304476025#11 -304476025#6 -304476025#3 -227913938#10 24452779#0 496253677#0 496253677#1 27067557#0"/>
    </vehicle>
    <vehicle id="1971" type="0" depart="37.72" departLane="free" departSpeed="max" fromTaz="9" toTaz="6">
        <route edges="227913938#0 227913938#7 -274022921#6 gneE29 27067577#0 27067577#3 496253680#0 496253680#3 496253680#5 496339476#0"/>
    </vehicle>
    <vehicle id="503" type="0" depart="38.06" departLane="free" departSpeed="max" fromTaz="14" toTaz="17">
        <route edges="279365144#1 286841509#0 286841509#3 -307097146 -259871063#1 -496332199#1 -496332196#1 -496332196#0 496332197#0 274022921#0 274022921#2 274022921#4 160913587"/>
    </vehicle>
    <vehicle id="1436" type="0" depart="39.46" departLane="free" departSpeed="max" fromTaz="5" toTaz="17">
        <route edges="-496339475#2 -286847301#1 286847309#0 -496253680#3 -496253680#2 -27067577#6 -27067577#2 gneE28 160913587"/>
    </vehicle>
    <vehicle id="1651" type="0" depart="40.23" departLane="free" departSpeed="max" fromTaz="7" toTaz="2">
        <route edges="-286094870#18 -286094870#14 504514704#5 -24452782#5 -24452782#3 286094881#0 24452804 -521058769#1 250710098#0 250710098#1 250710098#2 496493902 303889712#0 303889712#1 303889712#2 306997514#7 306997514#10 571719005#0"/>
    </vehicle>
    <vehicle id="1686" type="0" depart="40.56" departLane="free" departSpeed="max" fromTaz="7" toTaz="4">
        <route edges="-286094870#18 496253677#14 496253677#18 -521131212#1 -521131212#0 -203481580#3 228022815#5 228022815#6 286847307#0 161010072#1 -546374573#4 496332203#0"/>
    </vehicle>
    <vehicle id="1322" type="0" depart="41.89" departLane="free" departSpeed="max" fromTaz="3" toTaz="8">
        <route edges="-41389166#7 496332204#0 496332204#1 -158854903#1 108037210#1 108037210#4 286847309#0 286847309#2 286847309#4 286847309#8 286847309#10"/>
    </vehicle>
    <vehicle id="1687" type="0" depart="42.70" departLane="free" departSpeed="max" fromTaz="7" toTaz="4">
        <route edges="-521131212#2 496253677#19 228022815#2 228022815#4 228022815#5 228022815#6 286847307#0 161010072#1 161010072#3"/>
    </vehicle>
    <vehicle id="1671" type="0" depart="43.09" departLane="free" departSpeed="max" fromTaz="7" toTaz="4">
        <route edges="-286094870#18 496253677#14 496253677#18 -521131212#1 -521131212#0 -203481580#3 228022815#5 228022815#6 286847307#0 161010072#1 -546374573#4 496332203#0"/>
    </vehicle>
    <vehicle id="608" type="0" depart="43.91" departLane="free" departSpeed="max" fromTaz="14" toTaz="6">
        <route edges="279365144#1 286841509#0 286841509#3 -307097146 -31794905#4 319713269#8 319713269#10 107538204#0 -24452804 -286094881#1 286094878#0 496253680#0 gneE27 -203481580#3 286847309#4 41963902#6 41963902#7"/>
    </vehicle>
    <vehicle id="707" type="0" depart="44.66" departLane="free" departSpeed="max" fromTaz="16" toTaz="11">
        <route edges="-71285598#7 -71285598#6 -71285598#5 -496249903#1 152086640#5 297757247#0 297757247#3 297896463#0 297896463#2 297896463#3 306997494 -561994814#3 -561994814#0 562025614#0 gneE21 228022818#0 315886539#0 -496257360#5 -496257360#3 306997515#4"/>
    </vehicle>
    <vehicle id="1263" type="0" depart="44.77" departLane="free" departSpeed="max" fromTaz="3" toTaz="15">
        <route edges="-161010072#5 -161010072#2 -161010065#9 -24452783#5 -286847289#0 286094881#0 24452804 286847273#0 319713269#2 319713269#3 319713269#4 319713269#5 72871326#0 259871042#0 297757244#0 297757244#1"/>
    </vehicle>
    <vehicle id="732" type="0" depart="46.83" departLane="free" departSpeed="max" fromTaz="16" toTaz="13">
        <route edges="159315419 81509012#1 556031052#1"/>
    </vehicle>
    <vehicle id="583" type="0" depart="48.47" departLane="free" departSpeed="max" fromTaz="14" toTaz="6">
        <route edges="-72871334#3 -72871334#0 72871329#3 72871329#4 72871329#5 436251058 159315419 496249898#1 297757243#0 259871043#0 319713269#7 319713269#8 319713269#10 107538204#0 250710092#0 496253684#5 -552358549#4 38367679#0 38367679#2 108037210#0 158854903#0 546374573#0 546374573#5 496339475#0"/>
    </vehicle>
    <vehicle id="125" type="0" depart="49.39" departLane="free" departSpeed="max" fromTaz="1" toTaz="6">
        <route edges="-306997496#1 306997514#0 306997514#7 306997514#10 306997514#13 306997492#0 161036803#0 161036803#1 545315834#1 545315834#2 496332204#0 496332204#1 546374573#0 546374573#5 297757248#0 496339477#0 496339477#3 496339477#6 496253677#22"/>
    </vehicle>
    <vehicle id="1264" type="0" depart="49.40" departLane="free" departSpeed="max" fromTaz="3" toTaz="15">
        <route edges="302240826#4 302240826#7 -496253672 -286847289#0 286094881#0 -306997498#3 -159279412 -41389183#2 -496332200#7 -496332200#4 -496332200#1 -41389169#14 -41389169#13"/>
    </vehicle>
    <vehicle id="89" type="0" depart="50.28" departLane="free" departSpeed="max" fromTaz="1" toTaz="15">
        <route edges="-306997496#1 -315886536#3 gneE24 gneE22 -562025614#0 561994814#0 561994814#1 -306997494 -297896463#3 -297896463#2 -297896463#1 -307097146 -259871063#1 -496332199#1 -496332200#7 -496332200#4 -496332200#1 -41389169#14 -41389169#13"/>
    </vehicle>
    <vehicle id="866" type="0" depart="50.50" departLane="free" departSpeed="max" fromTaz="16" toTaz="6">
        <route edges="159315419 496249898#1 297757243#0 259871043#0 319713269#7 319713269#8 319713269#10 107538204#0 -24452804 -286094881#1 286094878#0 496253680#0 496253680#3 496253680#5 496339476#0"/>
    </vehicle>
    <vehicle id="430" type="0" depart="52.09" departLane="free" departSpeed="max" fromTaz="14" toTaz="10">
        <route edges="279365144#1 286841509#0 286841509#3 -307097146 -259871063#1 -496332199#1 -496332196#1 -496332196#0 -31794904#6 -31794904#2 -31794904#0 107538178#1 286852568 -304476025#12 -304476025#11 -304476025#6 -304476025#3 -227913938#10 24452779#0 -496253674#1"/>
    </vehicle>
    <vehicle id="712" type="0" depart="52.09" departLane="free" departSpeed="max" fromTaz="16" toTaz="11">
        <route edges="41389169#12 41389169#14 496332200#0 496332200#2 496332200#5 496332199#0 259871063#0 307097146 297896463#0 297896463#2 297896463#3 306997494 -561994814#3 -561994814#0 562025614#0 gneE21 228022818#0 315886539#0 -496257360#5 gneE5"/>
    </vehicle>
    <vehicle id="1259" type="0" depart="52.54" departLane="free" departSpeed="max" fromTaz="3" toTaz="13">
        <route edges="-161010072#5 -161010072#2 286847307#2 286847310#0 496493917#0 496493919#0 496493919#2 -521058769#1 -111343195#5 -111343195#2 -297896463#3 -297896463#2 -297896463#1 -286841509#4 -286841509#2 -279365144#3"/>
    </vehicle>
    <vehicle id="8" type="0" depart="52.68" departLane="free" departSpeed="max" fromTaz="1" toTaz="10">
        <route edges="-306997496#1 306997514#0 -303889712#3 -303889712#1 -303889712#0 259871068#0 107538207#0 107538207#2 496253685 365719024#0 319713269#10 319713269#2 24430153#0 306997497#0 286094870#0 286094870#3 -27067577#2 24452786#0 24452786#3 -496253677#9 -496253677#2 -499302825#3"/>
    </vehicle>
    <vehicle id="1600" type="0" depart="55.01" departLane="free" departSpeed="max" fromTaz="7" toTaz="15">
        <route edges="-521131212#2 -496253677#18 -496253677#17 -286094870#14 -286094870#10 -286094870#6 -286094870#2 -286094874#4 -496332197#5 -41389173#1 -496332200#4 -496332200#1 -41389169#14 159315422#5 159315422#6 71285598#7"/>
    </vehicle>
    <vehicle id="830" type="0" depart="55.31" departLane="free" departSpeed="max" fromTaz="16" toTaz="4">
        <route edges="31794904#1 -159315422#0 160253722#4 286094874#0 286094877 286847289#0 286847289#1 107538164#0 -496332204#0 41389166#5"/>
    </vehicle>
    <vehicle id="683" type="0" depart="56.58" departLane="free" departSpeed="max" fromTaz="16" toTaz="10">
        <route edges="31794904#1 -159315422#0 -160253722#3 -160253722#0 286852568 -304476025#12 -304476025#11 -304476025#6 -304476025#3 -227913938#10 24452779#0 496253677#0 -499302825#3"/>
    </vehicle>
    <vehicle id="270" type="0" depart="57.50" departLane="free" departSpeed="max" fromTaz="12" toTaz="2">
        <route edges="162442431#0 162442431#4 306997514#0 306997514#7 306997514#10 306997514#13 306997493#0"/>
    </vehicle>
    <vehicle id="941" type="0" depart="57.87" departLane="free" departSpeed="max" fromTaz="18" toTaz="10">
        <route edges="-160913587 274022921#5 -227913938#10 24452779#0 496253677#0 -499302825#3"/>
    </vehicle>
    <vehicle id="62" type="0" depart="58.21" departLane="free" departSpeed="max" fromTaz="1" toTaz="13">
        <route edges="-303889712#6 306997512#10 -315886536#3 gneE24 228022818#0 315886539#0 315886539#2 279365155#0 279365155#1 279365155#2 279365155#3 279365155#4 279365155#5 496257364#0 496257364#1 -279365144#3"/>
    </vehicle>
    <vehicle id="106" type="0" depart="58.46" departLane="free" departSpeed="max" fromTaz="1" toTaz="17">
        <route edges="-571719005#1 306997514#13 306997492#0 306997492#2 107538207#0 107538207#2 496253685 365719024#0 319713269#10 319713269#2 319713269#3 279032146#0 279032146#3 496332201#0 -160253722#7 -160253722#3"/>
    </vehicle>
    <vehicle id="424" type="0" depart="59.38" departLane="free" departSpeed="max" fromTaz="14" toTaz="10">
        <route edges="-72871334#3 -72871334#0 72871329#3 72871329#4 72871329#5 72871331 158895303#0 307096544#0 307096544#2 307096544#4 160253727 107538178#0 107538178#1 286852568 -304476025#12 -304476025#11 -304476025#6 -160913587 gneE29 24452786#0 24452786#3 24452786#7"/>
    </vehicle>
    <vehicle id="69" type="0" depart="59.70" departLane="free" departSpeed="max" fromTaz="1" toTaz="13">
        <route edges="-571719005#1 306997514#13 306997492#0 -497943357#6 -497943357#4 -497943357#2 gneE24 228022818#0 315886539#0 315886539#2 279365155#0 279365155#1 279365155#2 279365155#3 279365155#4 279365155#5 496257364#0 496257364#1 306974310#0 306974310#1 306974310#2 306974310#3 556031052#1"/>
    </vehicle>
    <vehicle id="1742" type="0" depart="60.44" departLane="free" departSpeed="max" fromTaz="7" toTaz="8">
        <route edges="228022815#0 496253677#21 -496339477#7 -41963902#6 286847309#8 286847309#10"/>
    </vehicle>
    <vehicle id="1163" type="0" depart="61.89" departLane="free" departSpeed="max" fromTaz="18" toTaz="8">
        <route edges="160253722#1 160253722#4 274022921#0 gneE31 286094870#3 286094870#7 286094870#11 496253677#14 24452782#7"/>
    </vehicle>
    <vehicle id="276" type="0" depart="62.38" departLane="free" departSpeed="max" fromTaz="12" toTaz="2">
        <route edges="158995079#0 -561994814#3 -561994814#0 562025614#0 gneE21 gneE23 315886536#1 306997514#0 303889712#5"/>
    </vehicle>
    <vehicle id="1619" type="0" depart="65.55" departLane="free" departSpeed="max" fromTaz="7" toTaz="17">
        <route edges="228022815#0 -496253677#19 -496253677#18 -496253677#17 -496253677#13 -24452786#6 -24452786#2 gneE28 160913587"/>
    </vehicle>
    <vehicle id="1967" type="0" depart="65.73" departLane="free" departSpeed="max" fromTaz="9" toTaz="6">
        <route edges="-24452786#9 496253677#10 496253677#14 496253677#18 496253677#19 496253677#21 496253677#22"/>
    </vehicle>
    <vehicle id="1861" type="0" depart="65.94" departLane="free" departSpeed="max" fromTaz="9" toTaz="17">
        <route edges="-24452786#9 -24452786#6 -24452786#2 gneE28 160913587"/>
    </vehicle>
    <vehicle id="492" type="0" depart="66.87" departLane="free" departSpeed="max" fromTaz="14" toTaz="17">
        <route edges="-72871334#3 -72871334#0 72871329#3 72871329#4 72871329#5 72871331 158895303#0 307096544#0 -159315446#2 -159315422#5 -159315422#4 -159315422#0 -160253722#3"/>
    </vehicle>
    <vehicle id="1853" type="0" depart="67.15" departLane="free" departSpeed="max" fromTaz="9" toTaz="15">
        <route edges="496253674#0 -24452779#1 227913938#7 304476025#0 304476025#4 304476025#7 304476025#12 160253726 41389178 107538178#0 31794904#0 31794904#1 159315422#1 159315422#5 159315422#6 71285598#7"/>
    </vehicle>
    <vehicle id="1959" type="0" depart="67.90" departLane="free" departSpeed="max" fromTaz="9" toTaz="6">
        <route edges="499302825#0 496253677#1 496253677#5 496253677#10 496253677#14 496253677#18 496253677#19 496253677#21 496253677#22"/>
    </vehicle>
    <vehicle id="721" type="0" depart="68.89" departLane="free" departSpeed="max" fromTaz="16" toTaz="11">
        <route edges="41389169#12 41389169#14 496332200#0 496332200#2 496332200#5 496332199#0 259871063#0 307097146 297896463#0 297896463#2 297896463#3 306997494 -158995079#1"/>
    </vehicle>
    <vehicle id="114" type="0" depart="69.37" departLane="free" departSpeed="max" fromTaz="1" toTaz="2">
        <route edges="-303889712#6 306997514#7 306997514#10 571719005#0"/>
    </vehicle>
    <vehicle id="1237" type="0" depart="69.72" departLane="free" departSpeed="max" fromTaz="3" toTaz="13">
        <route edges="-41389166#7 -545315834#2 -545315834#1 259871045#4 496493919#0 496493919#2 -521058769#1 -111343195#5 -111343195#2 -297896463#3 -297896463#2 -297896463#1 -286841509#4 -286841509#2 -279365144#3"/>
    </vehicle>
    <vehicle id="947" type="0" depart="71.77" departLane="free" departSpeed="max" fromTaz="18" toTaz="10">
        <route edges="-160913587 274022921#5 -227913938#10 -227913938#6"/>
    </vehicle>
    <vehicle id="571" type="0" depart="73.14" departLane="free" departSpeed="max" fromTaz="14" toTaz="4">
        <route edges="-556031052#2 -81509012#2 496249898#1 297757243#0 259871043#0 319713269#7 319713269#8 319713269#10 107538204#0 250710092#0 496253684#5 -552358549#4 38367679#0 41389166#0 496332204#0 -302240826#6"/>
    </vehicle>
    <vehicle id="1343" type="0" depart="74.60" departLane="free" departSpeed="max" fromTaz="5" toTaz="10">
        <route edges="-496339476#3 -496253680#6 286847309#2 203481580#2 203481580#4 -504514704#6 -504514704#4 24452786#3 -496253677#9 -496253677#2 -496253677#0 -496253674#1"/>
    </vehicle>
    <vehicle id="641" type="0" depart="76.11" departLane="free" departSpeed="max" fromTaz="14" toTaz="8">