<?xml version="1.0" encoding="UTF-8"?>

<!-- generated on 2023-04-28 11:15:23 by Eclipse SUMO duarouter Version 1.14.0
<configuration xmlns:xsi="http://www.w3.org/2001/XMLSchema-instance" xsi:noNamespaceSchemaLocation="http://sumo.dlr.de/xsd/duarouterConfiguration.xsd">

    <input>
        <net-file value="Tainan.net.xml"/>
        <additional-files value="vtype.xml"/>
        <route-files value="od_file.odtrips.xml"/>
    </input>

    <output>
        <output-file value="rou5/od_route_file.odtrips3.rou.xml"/>
    </output>

</configuration>
-->

<routes xmlns:xsi="http://www.w3.org/2001/XMLSchema-instance" xsi:noNamespaceSchemaLocation="http://sumo.dlr.de/xsd/routes_file.xsd">
    <vType id="0" speedFactor="normc(0.95,0.10,0.60,1.50)"/>
    <vehicle id="1645" type="0" depart="1.97" departLane="free" departSpeed="max" fromTaz="7" toTaz="2">
        <route edges="-286094870#18 -286094870#14 504514704#5 -24452782#5 -24452782#3 286094881#0 24452804 -521058769#1 250710098#0 250710098#1 250710098#2 279369086#0 279369086#1 279369086#2 306997513#1 -158782352#5"/>
    </vehicle>
    <vehicle id="53" type="0" depart="2.77" departLane="free" departSpeed="max" fromTaz="1" toTaz="13">
        <route edges="-571719005#1 306997514#13 306997492#0 -497943357#6 -497943357#4 -497943357#2 gneE24 228022818#0 315886539#0 315886539#2 279365155#0 279365155#1 279365155#2 279365155#3 279365155#4 279365155#5 496257364#0 496257364#1 306974310#0 306974310#1 -81509011#2"/>
    </vehicle>
    <vehicle id="1104" type="0" depart="2.78" departLane="free" departSpeed="max" fromTaz="18" toTaz="4">
        <route edges="160253722#1 160253722#4 286094874#0 286094877 286847289#0 286847289#1 107538164#0 -496332204#0 41389166#5"/>
    </vehicle>
    <vehicle id="374" type="0" depart="3.36" departLane="free" departSpeed="max" fromTaz="12" toTaz="8">
        <route edges="297757252#0 496257361 315886538#0 142297097#0 315886540#0 259871068#0 107538207#0 107538207#2 496253684#0 496253684#5 496253682#0 24452783#0 496253679#0 gneE27 521131212#0 521131212#1 521131212#2"/>
    </vehicle>
    <vehicle id="1638" type="0" depart="3.37" departLane="free" departSpeed="max" fromTaz="7" toTaz="17">
        <route edges="-286094870#18 -286094870#14 -286094870#10 -286094870#6 -286094870#2 -286094874#4 -160253722#7 -160253722#3"/>
    </vehicle>
    <vehicle id="919" type="0" depart="5.25" departLane="free" departSpeed="max" fromTaz="16" toTaz="8">
        <route edges="-71285598#7 -159315422#7 -159315446#0 496332200#0 496332200#2 496332200#5 41389183#0 159279412 306997497#0 286094870#0 286094870#3 286094870#7 286094870#11 496253677#14 496253677#18 496253677#19 286847309#10"/>
    </vehicle>
    <vehicle id="1656" type="0" depart="5.41" departLane="free" departSpeed="max" fromTaz="7" toTaz="2">
        <route edges="228022815#0 228022815#2 228022815#4 228022815#5 228022815#6 286847307#0 286847307#2 286847310#0 496493917#0 250710099#0 250710099#3 496493902 303889712#0 303889712#1 303889712#2 306997512#10 306997496#0"/>
    </vehicle>
    <vehicle id="724" type="0" depart="5.53" departLane="free" departSpeed="max" fromTaz="16" toTaz="11">
        <route edges="152086640#0 152086640#1 152086640#5 297757247#0 297757247#3 297896463#0 297896463#2 297896463#3 306997494 -158995079#1"/>
    </vehicle>
    <vehicle id="1660" type="0" depart="5.82" departLane="free" departSpeed="max" fromTaz="7" toTaz="2">
        <route edges="-286094870#18 -286094870#14 -286094870#10 -286094870#6 -286094870#2 -306997497#2 -24430153#1 319713269#3 319713269#4 319713269#5 319713269#7 31794905#0 307097146 297896463#0 297896463#2 297896463#3 306997494 -561994814#3 -561994814#0 562025614#0 gneE21 gneE23 315886536#1 306997496#0"/>
    </vehicle>
    <vehicle id="1520" type="0" depart="7.11" departLane="free" departSpeed="max" fromTaz="7" toTaz="11">
        <route edges="228022815#0 228022815#2 228022815#4 228022815#5 228022815#6 286847307#0 286847307#2 286847310#0 496493917#0 250710099#0 250710099#3 496493902 259871069#0 315886537#0 228022818#0 315886539#0 315886539#2"/>
    </vehicle>
    <vehicle id="1621" type="0" depart="9.21" departLane="free" departSpeed="max" fromTaz="7" toTaz="17">
        <route edges="-24452782#8 -496253677#17 -286094870#14 -286094870#10 -286094870#6 -286094870#2 -286094874#4 -160253722#7 -160253722#3"/>
    </vehicle>
    <vehicle id="1166" type="0" depart="9.26" departLane="free" departSpeed="max" fromTaz="18" toTaz="8">
        <route edges="160253722#1 160253722#4 286094874#0 286094877 286847289#0 24452783#0 496253679#0 gneE27 521131212#0 521131212#1 521131212#2"/>
    </vehicle>
    <vehicle id="1406" type="0" depart="9.80" departLane="free" departSpeed="max" fromTaz="5" toTaz="13">
        <route edges="-496339475#2 -286847301#1 286847307#0 -161010065#9 -24452783#5 -286847289#0 286094881#0 24452804 286847273#0 319713269#2 319713269#3 319713269#4 319713269#5 72871326#0 259871042#0 297757244#0 297757244#1 228022791 24452776 72871329#0 286847288#0 228022792#0"/>
    </vehicle>
    <vehicle id="824" type="0" depart="9.89" departLane="free" departSpeed="max" fromTaz="16" toTaz="4">
        <route edges="-71285598#7 -159315422#7 -159315446#0 496332200#0 496332200#2 496332200#5 41389183#0 159279412 306997498#0 -286361759#1 -552358549#4 38367679#0 41389166#0 496332204#0 -302240826#6"/>
    </vehicle>
    <vehicle id="366" type="0" depart="10.19" departLane="free" departSpeed="max" fromTaz="12" toTaz="6">
        <route edges="158783758#2 -81357763#0 496493905#3 111343195#0 111343195#3 521058769#0 -24452804 -286094881#1 286094878#0 496253680#0 gneE27 -203481580#3 286847309#4 41963902#6 496339477#6 496253677#22"/>
    </vehicle>
    <vehicle id="1850" type="0" depart="10.55" departLane="free" departSpeed="max" fromTaz="9" toTaz="15">
        <route edges="159307912 -496253677#2 -496253677#0 -24452779#1 227913938#7 304476025#0 304476025#4 304476025#7 304476025#12 160253726 41389178 107538178#0 107538178#1 160253722#0 160253722#1 159315422#0 -31794904#2"/>
    </vehicle>
    <vehicle id="1725" type="0" depart="11.47" departLane="free" departSpeed="max" fromTaz="7" toTaz="6">
        <route edges="228022815#0 228022815#2 228022815#4 -203481580#0 -496339477#2 496339476#0"/>
    </vehicle>
    <vehicle id="592" type="0" depart="11.57" departLane="free" departSpeed="max" fromTaz="14" toTaz="6">
        <route edges="279365144#1 286841509#0 286841509#3 -307097146 -31794905#4 319713269#8 319713269#10 107538204#0 250710092#0 496253684#5 -552358549#4 38367679#0 38367679#2 108037210#0 158854903#0 546374573#0 546374573#5 496339475#0"/>
    </vehicle>
    <vehicle id="1953" type="0" depart="14.32" departLane="free" departSpeed="max" fromTaz="9" toTaz="4">
        <route edges="-24452786#9 -24452786#6 -24452786#2 27067577#0 27067577#3 496253680#0 -496253679#6 -24452783#5 286847289#1 107538164#0 -496332204#0 41389166#5"/>
    </vehicle>
    <vehicle id="357" type="0" depart="15.85" departLane="free" departSpeed="max" fromTaz="12" toTaz="6">
        <route edges="-gneE5 161036801#7 497943357#0 497943357#3 497943357#5 161036803#0 161036803#1 545315834#1 545315834#2 496332204#0 496332204#1 546374573#0 546374573#5 297757248#0 496339477#0 496339477#3 496339477#6 496253677#22"/>
    </vehicle>
    <vehicle id="442" type="0" depart="17.84" departLane="free" departSpeed="max" fromTaz="14" toTaz="10">
        <route edges="-228022792#1 72871344 72871329#2 72871329#3 72871329#4 72871329#5 72871331 158895303#0 307096544#0 307096544#2 307096544#4 160253727 107538178#0 107538178#1 286852568 -304476025#12 -304476025#11 -304476025#6 -304476025#3 -227913938#10 24452779#0 496253677#0 -499302825#3"/>
    </vehicle>
    <vehicle id="1863" type="0" depart="18.64" departLane="free" departSpeed="max" fromTaz="9" toTaz="15">
        <route edges="499302825#0 -496253677#0 -24452779#1 227913938#7 304476025#0 304476025#4 304476025#7 304476025#12 160253726 41389178 -160253727 -307096544#5 -307096544#3 -71285598#7 159315422#8 -152086640#0"/>
    </vehicle>
    <vehicle id="1724" type="0" depart="20.80" departLane="free" departSpeed="max" fromTaz="7" toTaz="6">
        <route edges="-24452782#8 496253677#18 -521131212#1 -521131212#0 -203481580#3 228022815#5 496253680#5 -297757248#1 496339475#0"/>
    </vehicle>
    <vehicle id="1306" type="0" depart="22.66" departLane="free" departSpeed="max" fromTaz="3" toTaz="4">
        <route edges="-41389166#7 496332204#0 496332204#1 546374573#0 161010072#3"/>
    </vehicle>
    <vehicle id="1994" type="0" depart="23.07" departLane="free" departSpeed="max" fromTaz="9" toTaz="8">
        <route edges="496253674#0 496253677#0 496253677#1 496253677#5 496253677#10 496253677#14 496253677#18 521131212#2"/>
    </vehicle>
    <vehicle id="219" type="0" depart="23.32" departLane="free" departSpeed="max" fromTaz="12" toTaz="15">
        <route edges="162442431#0 496257360#1 496257360#4 496257361 315886538#0 gneE22 -562025614#0 561994814#0 561994814#1 -306997494 -297896463#3 -297896463#2 -297896463#1 -307097146 -259871063#1 -496332199#1 -496332196#1 -496332196#0 -31794904#6 -31794904#2"/>
    </vehicle>
    <vehicle id="107" type="0" depart="24.88" departLane="free" departSpeed="max" fromTaz="1" toTaz="17">
        <route edges="158782352#4 306997513#5 259871045#1 259871045#4 496493919#0 496493919#2 286847273#0 319713269#2 319713269#3 279032146#0 279032146#3 496332201#0 -160253722#7 -160253722#3"/>
    </vehicle>
    <vehicle id="1533" type="0" depart="27.17" departLane="free" departSpeed="max" fromTaz="7" toTaz="11">
        <route edges="-521131212#2 -496253677#18 -24452782#6 -24452782#5 -24452782#3 286094881#0 24452804 -521058769#1 -111343195#5 -111343195#2 -496493905#3 81357763#0 -158783758#6"/>
    </vehicle>
    <vehicle id="1936" type="0" depart="27.17" departLane="free" departSpeed="max" fromTaz="9" toTaz="4">
        <route edges="-24452786#9 -24452786#6 -24452786#2 27067577#0 27067577#3 496253680#0 -496253679#6 161010065#0 161010072#1 -546374573#4 496332203#0"/>
    </vehicle>
    <vehicle id="534" type="0" depart="27.25" departLane="free" departSpeed="max" fromTaz="14" toTaz="2">
        <route edges="279365144#1 228022809#0 228022809#4 228022809#5 228022809#7 228022809#8 228022809#9 297757252#0 496257361 315886538#0 gneE23 497943357#0 497943357#3 497943357#5 279369086#1 279369086#2 306997513#1 -158782352#5"/>
    </vehicle>
    <vehicle id="1964" type="0" depart="28.06" departLane="free" departSpeed="max" fromTaz="9" toTaz="6">
        <route edges="227913938#0 227913938#7 -274022921#6 gneE29 27067577#0 27067577#3 496253680#0 496253680#3 496253680#5 496339476#0"/>
    </vehicle>
    <vehicle id="1154" type="0" depart="28.59" departLane="free" departSpeed="max" fromTaz="18" toTaz="8">
        <route edges="160253722#1 160253722#4 286094874#0 286094877 286847289#0 24452783#0 496253679#0 gneE27 521131212#0 41963902#0 286847309#8 286847309#10"/>
    </vehicle>
    <vehicle id="415" type="0" depart="28.85" departLane="free" departSpeed="max" fromTaz="14" toTaz="10">
        <route edges="279365144#1 286841509#0 286841509#3 -307097146 -259871063#1 -496332199#1 -496332196#1 -496332196#0 -31794904#6 -31794904#2 -31794904#0 107538178#1 286852568 -304476025#12 -304476025#11 -304476025#6 -304476025#3 -227913938#10 -227913938#6"/>
    </vehicle>
    <vehicle id="383" type="0" depart="29.95" departLane="free" departSpeed="max" fromTaz="12" toTaz="8">
        <route edges="162442431#0 162442431#4 -315886536#3 497943357#0 -303889712#0 259871068#0 107538207#0 107538207#2 496253685 365719024#0 319713269#10 319713269#2 24430153#0 306997497#0 286094870#0 286094870#3 286094870#7 286094870#11 286094870#15"/>
    </vehicle>
    <vehicle id="1954" type="0" depart="29.96" departLane="free" departSpeed="max" fromTaz="9" toTaz="6">
        <route edges="159307912 496253677#5 496253677#10 496253677#14 496253677#18 496253677#19 496253677#21 496253677#22"/>
    </vehicle>
    <vehicle id="1566" type="0" depart="30.07" departLane="free" departSpeed="max" fromTaz="7" toTaz="13">
        <route edges="-286094870#18 -286094870#14 -286094870#10 -286094870#6 -286094870#2 -306997497#2 -24430153#1 319713269#3 319713269#4 319713269#5 319713269#7 31794905#0 307097146 -286841509#4 -286841509#2 306974310#0 306974310#1 -81509011#2"/>
    </vehicle>
    <vehicle id="570" type="0" depart="30.59" departLane="free" departSpeed="max" fromTaz="14" toTaz="4">
        <route edges="-72871334#3 -72871334#0 72871329#3 72871329#4 72871329#5 436251058 159315419 496249898#1 297757243#0 259871043#0 319713269#7 319713269#8 319713269#10 107538204#0 250710092#0 496253684#5 -552358549#4 38367679#0 38367679#2 108037210#0 158854903#0 546374573#0 161010072#3"/>
    </vehicle>
    <vehicle id="1729" type="0" depart="30.88" departLane="free" departSpeed="max" fromTaz="7" toTaz="6">
        <route edges="228022815#0 228022815#2 228022815#4 228022815#5 496253680#5 -297757248#1 496339475#0"/>
    </vehicle>
    <vehicle id="1866" type="0" depart="31.40" departLane="free" departSpeed="max" fromTaz="9" toTaz="17">
        <route edges="159307912 -496253677#2 -496253677#0 -24452779#1 227913938#7 -274022921#6 160913587"/>
    </vehicle>
    <vehicle id="1461" type="0" depart="34.90" departLane="free" departSpeed="max" fromTaz="5" toTaz="4">
        <route edges="-496339476#3 -297757248#1 -546374573#5 161010072#3"/>
    </vehicle>
    <vehicle id="1479" type="0" depart="35.04" departLane="free" departSpeed="max" fromTaz="5" toTaz="8">
        <route edges="-496339475#2 297757248#0 -496253680#6 286847309#2 286847309#4 286847309#8 -496253677#19 521131212#2"/>
    </vehicle>
    <vehicle id="303" type="0" depart="35.06" departLane="free" departSpeed="max" fromTaz="12" toTaz="4">
        <route edges="297757252#0 496257361 315886538#0 142297097#0 315886540#0 259871068#0 298812493#0 298812493#1 496493914 38367679#0 38367679#2 108037210#0 158854903#0 546374573#0 161010072#3"/>
    </vehicle>
    <vehicle id="1293" type="0" depart="35.65" departLane="free" departSpeed="max" fromTaz="3" toTaz="17">
        <route edges="-41389166#7 -545315834#2 -545315834#1 259871045#4 496493919#0 496493919#2 286847273#0 319713269#2 319713269#3 279032146#0 279032146#3 496332201#0 -160253722#7 -160253722#3"/>
    </vehicle>
    <vehicle id="1535" type="0" depart="36.99" departLane="free" departSpeed="max" fromTaz="7" toTaz="11">
        <route edges="228022815#0 228022815#2 228022815#4 228022815#5 228022815#6 286847307#0 286847307#2 286847310#0 496493917#0 250710099#0 250710099#3 496493902 259871069#0 315886537#0 228022818#0 315886539#0 -496257360#5 gneE5"/>
    </vehicle>
    <vehicle id="423" type="0" depart="37.91" departLane="free" departSpeed="max" fromTaz="14" toTaz="10">
        <route edges="-228022792#1 72871344 72871329#2 72871329#3 72871329#4 72871329#5 72871331 158895303#0 307096544#0 307096544#2 307096544#4 160253727 107538178#0 107538178#1 286852568 -304476025#12 -304476025#11 -304476025#6 -304476025#3 -227913938#10 24452779#0 496253677#0 496253677#1 27067557#0"/>
    </vehicle>
    <vehicle id="705" type="0" depart="38.45" departLane="free" departSpeed="max" fromTaz="16" toTaz="11">
        <route edges="159315419 496249898#1 297757247#0 297757247#3 297896463#0 297896463#2 297896463#3 306997494 -158995079#1"/>
    </vehicle>
    <vehicle id="1648" type="0" depart="38.48" departLane="free" departSpeed="max" fromTaz="7" toTaz="2">
        <route edges="-24452782#8 -24452782#6 -24452782#5 -24452782#3 286094881#0 24452804 -521058769#1 250710098#0 250710098#1 250710098#2 496493902 303889712#0 303889712#1 303889712#2 306997512#10 306997496#0"/>
    </vehicle>
    <vehicle id="1795" type="0" depart="39.47" departLane="free" departSpeed="max" fromTaz="9" toTaz="11">
        <route edges="159307912 496253677#5 -24452786#6 -24452786#2 27067577#0 -286094870#6 -286094870#2 -306997497#2 -24430153#1 319713269#3 319713269#4 319713269#5 319713269#7 31794905#0 307097146 297896463#0 297896463#2 297896463#3 306997494 -561994814#3 -561994814#0 562025614#0 gneE21 228022818#0 315886539#0 315886539#2"/>
    </vehicle>
    <vehicle id="732" type="0" depart="39.63" departLane="free" departSpeed="max" fromTaz="16" toTaz="13">
        <route edges="159315419 81509012#1 228022808#2 228022808#3 228022808#4 228022808#6 -279365144#3"/>
    </vehicle>
    <vehicle id="1093" type="0" depart="42.49" departLane="free" departSpeed="max" fromTaz="18" toTaz="4">
        <route edges="160253722#1 160253722#4 286094874#0 286094877 286847289#0 286847289#1 107538164#0 -302240826#6"/>
    </vehicle>
    <vehicle id="43" type="0" depart="45.53" departLane="free" departSpeed="max" fromTaz="1" toTaz="11">
        <route edges="-571719005#1 306997514#13 306997492#0 -497943357#6 -497943357#4 -497943357#2 -161036801#9 gneE5"/>
    </vehicle>
    <vehicle id="983" type="0" depart="46.36" departLane="free" departSpeed="max" fromTaz="18" toTaz="11">
        <route edges="-160913587 -274022921#4 -274022921#3 -274022921#1 -496332201#4 -279032146#4 -279032146#2 319713269#4 319713269#5 319713269#7 31794905#0 307097146 297896463#0 297896463#2 297896463#3 306997494 -561994814#3 -561994814#0 562025614#0 gneE21 228022818#0 315886539#0 -496257360#5 gneE5"/>
    </vehicle>
    <vehicle id="1357" type="0" depart="48.91" departLane="free" departSpeed="max" fromTaz="5" toTaz="10">
        <route edges="-496253677#23 -496253677#21 -496253677#19 -496253677#18 -496253677#17 -496253677#13 -496253677#9 27067557#0"/>
    </vehicle>
    <vehicle id="1664" type="0" depart="49.14" departLane="free" departSpeed="max" fromTaz="7" toTaz="2">
        <route edges="228022815#0 228022815#2 228022815#4 228022815#5 228022815#6 286847307#0 286847307#2 286847310#0 496493917#0 250710099#0 250710099#3 496493902 303889712#0 303889712#1 303889712#2 306997512#10 306997496#0"/>
    </vehicle>
    <vehicle id="349" type="0" depart="49.42" departLane="free" departSpeed="max" fromTaz="12" toTaz="6">
        <route edges="297757252#0 496257361 315886538#0 142297097#0 315886540#0 259871068#0 298812493#0 298812493#1 496493914 38367679#0 38367679#2 108037210#0 158854903#0 546374573#0 546374573#5 496339475#0"/>
    </vehicle>
    <vehicle id="1797" type="0" depart="49.56" departLane="free" departSpeed="max" fromTaz="9" toTaz="11">
        <route edges="496253674#0 -24452779#1 227913938#7 -274022921#6 -274022921#4 -274022921#3 -274022921#1 -496332201#4 -279032146#4 -279032146#2 319713269#4 319713269#5 319713269#7 31794905#0 307097146 297896463#0 297896463#2 297896463#3 306997494 -561994814#3 -561994814#0 562025614#0 gneE21 228022818#0 315886539#0 -496257360#5 -496257360#3 306997515#4"/>
    </vehicle>
    <vehicle id="954" type="0" depart="50.61" departLane="free" departSpeed="max" fromTaz="18" toTaz="10">
        <route edges="-160913587 gneE29 24452786#0 24452786#3 24452786#7"/>
    </vehicle>
    <vehicle id="425" type="0" depart="51.39" departLane="free" departSpeed="max" fromTaz="14" toTaz="10">
        <route edges="279365144#1 286841509#0 286841509#3 -307097146 -259871063#1 -496332199#1 -496332196#1 -496332196#0 -31794904#6 -31794904#2 -31794904#0 107538178#1 286852568 -304476025#12 -304476025#11 -304476025#6 -304476025#3 -227913938#10 -227913938#6"/>
    </vehicle>
    <vehicle id="353" type="0" depart="52.05" departLane="free" departSpeed="max" fromTaz="12" toTaz="6">
        <route edges="158995079#0 -561994814#3 41389167#0 554648350#0 496253684#0 496253684#5 496253682#0 24452783#0 496253679#0 496253680#3 496253680#5 496339476#0"/>
    </vehicle>
    <vehicle id="599" type="0" depart="53.18" departLane="free" departSpeed="max" fromTaz="14" toTaz="6">
        <route edges="279365144#1 286841509#0 286841509#3 -307097146 -31794905#4 319713269#8 319713269#10 107538204#0 -24452804 -286094881#1 286094878#0 496253680#0 496253680#3 496253680#5 496339476#0"/>
    </vehicle>
    <vehicle id="1268" type="0" depart="53.56" departLane="free" departSpeed="max" fromTaz="3" toTaz="15">
        <route edges="-161010072#5 -161010072#2 -161010065#9 -24452783#5 -286847289#0 -286094877 -286094874#4 -160253722#7 159315422#0 -31794904#2"/>
    </vehicle>
    <vehicle id="729" type="0" depart="53.68" departLane="free" departSpeed="max" fromTaz="16" toTaz="11">
        <route edges="31794904#1 31794904#3 496332196#0 496332196#1 496332199#0 259871063#0 307097146 297896463#0 297896463#2 297896463#3 306997494 -158995079#1"/>
    </vehicle>
    <vehicle id="497" type="0" depart="54.40" departLane="free" departSpeed="max" fromTaz="14" toTaz="17">
        <route edges="81509011#0 306974310#2 306974310#3 -81509012#2 496249903#0 496249903#1 71285598#5 -160321090 496332200#2 41389173#0 496332197#0 274022921#0 274022921#2 274022921#4 160913587"/>
    </vehicle>
    <vehicle id="1674" type="0" depart="55.76" departLane="free" departSpeed="max" fromTaz="7" toTaz="4">
        <route edges="-24452782#8 496253677#18 -521131212#1 -521131212#0 -203481580#3 228022815#5 228022815#6 286847307#0 161010072#1 -546374573#4 496332203#0"/>
    </vehicle>
    <vehicle id="1061" type="0" depart="56.27" departLane="free" departSpeed="max" fromTaz="18" toTaz="2">
        <route edges="160253722#1 159315422#0 31794904#3 496332196#0 496332196#1 496332199#0 259871063#0 307097146 297896463#0 297896463#2 297896463#3 306997494 -561994814#3 -561994814#0 562025614#0 gneE21 gneE23 315886536#1 306997496#0"/>
    </vehicle>
    <vehicle id="556" type="0" depart="56.77" departLane="free" departSpeed="max" fromTaz="14" toTaz="4">
        <route edges="-228022792#1 72871344 72871329#2 72871329#3 72871329#4 72871329#5 436251058 159315419 496249898#1 297757243#0 259871043#0 319713269#7 319713269#8 319713269#10 107538204#0 250710092#0 496253684#5 -552358549#4 38367679#0 38367679#2 108037210#0 158854903#0 496332203#0"/>
    </vehicle>
    <vehicle id="1233" type="0" depart="57.01" departLane="free" departSpeed="max" fromTaz="3" toTaz="11">
        <route edges="302240826#4 -496332204#0 -545315834#2 -545315834#1 259871045#4 496493919#0 -496253684#3 -554648350#1 -562025613 561994814#1 -158995079#1"/>
    </vehicle>
    <vehicle id="222" type="0" depart="57.81" departLane="free" departSpeed="max" fromTaz="12" toTaz="15">
        <route edges="297757252#0 496257361 315886538#0 gneE22 -562025614#0 561994814#0 561994814#1 -306997494 -297896463#3 -297896463#2 -297896463#1 -307097146 -259871063#1 -496332199#1 -496332200#7 -496332200#4 -496332200#1 -41389169#14 -41389169#13"/>
    </vehicle>
    <vehicle id="1250" type="0" depart="58.13" departLane="free" departSpeed="max" fromTaz="3" toTaz="13">
        <route edges="302240826#4 -496332204#0 -545315834#2 -545315834#1 259871045#4 496493919#0 496493919#2 286847273#0 319713269#2 319713269#3 319713269#4 319713269#5 72871326#0 259871042#0 297757244#0 81509012#1 556031052#1"/>
    </vehicle>
    <vehicle id="388" type="0" depart="58.66" departLane="free" departSpeed="max" fromTaz="12" toTaz="8">
        <route edges="-gneE5 496257360#4 496257361 315886538#0 142297097#0 315886540#0 259871068#0 298812493#0 298812493#1 496493914 38367679#0 38367679#2 108037210#0 108037210#1 108037210#4 286847309#0 286847309#2 286847309#4 286847309#8 286847309#10"/>
    </vehicle>
    <vehicle id="1720" type="0" depart="61.01" departLane="free" departSpeed="max" fromTaz="7" toTaz="6">
        <route edges="228022815#0 496253677#21 -496339477#7 41963902#7"/>
    </vehicle>
    <vehicle id="8" type="0" depart="61.35" departLane="free" departSpeed="max" fromTaz="1" toTaz="10">
        <route edges="158895309#2 306997492#0 306997492#2 107538207#0 107538207#2 496253685 365719024#0 319713269#10 319713269#2 319713269#3 279032146#0 279032146#3 496332201#0 274022921#0 274022921#2 274022921#4 274022921#5 -227913938#10 -227913938#6"/>
    </vehicle>
    <vehicle id="1411" type="0" depart="61.45" departLane="free" departSpeed="max" fromTaz="5" toTaz="13">
        <route edges="-496339475#2 -286847301#1 286847307#0 -161010065#9 -24452783#5 -286847289#0 286094881#0 24452804 286847273#0 319713269#2 319713269#3 319713269#4 319713269#5 72871326#0 259871042#0 297757244#0 297757244#1 228022791 24452776 72871329#0 286847288#0 228022792#0"/>
    </vehicle>
    <vehicle id="1352" type="0" depart="61.84" departLane="free" departSpeed="max" fromTaz="5" toTaz="10">
        <route edges="-496339476#3 -496253680#6 286847309#2 203481580#2 203481580#4 -504514704#6 -504514704#4 24452786#3 -496253677#9 27067557#0"/>
    </vehicle>
    <vehicle id="1836" type="0" depart="64.13" departLane="free" departSpeed="max" fromTaz="9" toTaz="13">
        <route edges="499302825#0 -496253677#0 -24452779#1 227913938#7 -274022921#6 -274022921#4 -274022921#3 -274022921#1 -496332201#4 -279032146#4 -279032146#2 319713269#4 319713269#5 319713269#7 31794905#0 307097146 -286841509#4 -286841509#2 -279365144#3"/>
    </vehicle>
    <vehicle id="192" type="0" depart="64.34" departLane="free" departSpeed="max" fromTaz="12" toTaz="11">
        <route edges="158995079#0 -561994814#3 -561994814#0 562025614#0 gneE21 228022818#0 315886539#0 -496257360#5 gneE5"/>
    </vehicle>
    <vehicle id="885" type="0" depart="65.05" departLane="free" departSpeed="max" fromTaz="16" toTaz="8">
        <route edges="-71285598#7 -159315422#7 -159315446#0 496332200#0 496332200#2 496332200#5 41389183#0 159279412 306997497#0 286094870#0 286094870#3 286094870#7 286094870#11 496253677#14 496253677#18 521131212#2"/>
    </vehicle>
    <vehicle id="93" type="0" depart="65.59" departLane="free" departSpeed="max" fromTaz="1" toTaz="17">
        <route edges="-571719005#1 306997514#13 306997492#0 306997492#2 107538207#0 107538207#2 496253685 365719024#0 319713269#10 319713269#2 319713269#3 279032146#0 279032146#3 496332201#0 -160253722#7 -160253722#3"/>
    </vehicle>
    <vehicle id="1056" type="0" depart="65.94" departLane="free" departSpeed="max" fromTaz="18" toTaz="2">
        <route edges="-160913587 -274022921#4 -274022921#3 -274022921#1 -496332201#4 -279032146#4 -279032146#2 319713269#4 319713269#5 319713269#7 31794905#0 307097147#0 307097147#3 536826453 496253687#1 303889712#0 303889712#1 303889712#2 306997514#7 306997514#10 571719005#0"/>
    </vehicle>
    <vehicle id="1588" type="0" depart="68.52" departLane="free" departSpeed="max" fromTaz="7" toTaz="15">
        <route edges="228022815#0 228022815#2 -41963902#4 -521131212#0 203481580#4 -24452782#5 -24452782#3 286094881#0 24452804 286847273#0 319713269#2 319713269#3 319713269#4 319713269#5 72871326#0 259871042#0 -152086640#6 -152086640#4 -152086640#0"/>
    </vehicle>
    <vehicle id="1905" type="0" depart="69.79" departLane="free" departSpeed="max" fromTaz="9" toTaz="2">
        <route edges="499302825#0 -496253677#0 -24452779#1 227913938#7 -274022921#6 -274022921#4 -274022921#3 -274022921#1 -496332201#4 -279032146#4 -279032146#2 319713269#4 319713269#5 319713269#7 31794905#0 307097146 297896463#0 297896463#2 297896463#3 306997494 -561994814#3 -561994814#0 562025614#0 gneE21 gneE23 315886536#1 306997496#0"/>
    </vehicle>
    <vehicle id="659" type="0" depart="70.20" departLane="free" departSpeed="max" fromTaz="16" toTaz="10">
        <route edges="159315419 496249898#1 297757243#0 259871043#0 319713269#7 319713269#8 319713269#10 319713269#2 24430153#0 306997497#0 286094870#0 286094870#3 -27067577#2 24452786#0 24452786#3 -496253677#9 27067557#0"/>
    </vehicle>
    <vehicle id="917" type="0" depart="70.20" departLane="free" departSpeed="max" fromTaz="16" toTaz="8">
        <route edges="-71285598#7 -159315422#7 -159315446#0 496332200#0 496332200#2 496332200#5 41389183#0 159279412 306997497#0 286094870#0 286094870#3 286094870#7 286094870#11 496253677#14 496253677#18 496253677#19 286847309#10"/>
    </vehicle>
    <vehicle id="1655" type="0" depart="70.65" departLane="free" departSpeed="max" fromTaz="7" toTaz="2">
        <route edges="228022815#0 228022815#2 228022815#4 228022815#5 228022815#6 286847307#0 286847307#2 286847310#0 496493917#0 250710099#0 250710099#3 496493902 303889712#0 303889712#1 303889712#2 306997514#7 306997514#10 571719005#0"/>
    </vehicle>
    <vehicle id="929" type="0" depart="71.83" departLane="free" departSpeed="max" fromTaz="18" toTaz="10">
        <route edges="-160913587 274022921#5 -227913938#10 24452779#0 496253677#0 -499302825#3"/>
    </vehicle>
    <vehicle id="1562" type="0" depart="71.96" departLane="free" departSpeed="max" fromTaz="7" toTaz="13">
        <route edges="228022815#0 228022815#2 -41963902#4 -521131212#0 203481580#4 -24452782#5 -24452782#3 286094881#0 24452804 -521058769#1 -111343195#5 -111343195#2 -297896463#3 -297896463#2 -297896463#1 -286841509#4 -286841509#2 306974310#0 306974310#1 -81509011#2"/>
    </vehicle>
    <vehicle id="414" type="0" depart="73.00" departLane="free" departSpeed="max" fromTaz="14" toTaz="10">
        <route edges="-72871334#3 -72871334#0 72871329#3 72871329#4 72871329#5 72871331 158895303#0 307096544#0 307096544#2 307096544#4 160253727 107538178#0 107538178#1 286852568 -304476025#12 -304476025#11 -304476025#6 -304476025#3 -227913938#10 24452779#0 496253677#0 496253677#1 27067557#0"/>
    </vehicle>
    <vehicle id="755" type="0" depart="73.04" departLane="free" departSpeed="max" fromTaz="16" toTaz="13">
        <route edges="-71285598#7 -71285598#6 -71285598#5 -496249903#1 -496249903#0 81509012#1 556031052#1"/>
    </vehicle>
    <vehicle id="1889" type="0" depart="74.13" departLane="free" departSpeed="max" fromTaz="9" toTaz="17">
        <route edges="499302825#0 -496253677#0 -24452779#1 227913938#7 -274022921#6 -274022921#4 -274022921#3 -274022921#1 -160253722#7 -160253722#3"/>
    </vehicle>
    <vehicle id="224" type="0" depart="75.03" departLane="free" departSpeed="max" fromTaz="12" toTaz="15">
        <route edges="158995079#0 -306997494 -297896463#3 -297896463#2 -297896463#1 -307097146 -259871063#1 -496332199#1 -496332196#1 -496332196#0 -31794904#6 -31794904#2"/>
    </vehicle>
    <vehicle id="830" type="0" depart="75.58" departLane="free" departSpeed="max" fromTaz="16" toTaz="4">