<?xml version="1.0" encoding="UTF-8"?>

<!-- generated on 04/24/20 01:44:37 by Eclipse SUMO netedit Version 1.3.1
<configuration xmlns:xsi="http://www.w3.org/2001/XMLSchema-instance" xsi:noNamespaceSchemaLocation="http://sumo.dlr.de/xsd/netconvertConfiguration.xsd">

    <input>
        <sumo-net-file value="C:\SUMO_TEST\rerouting\Tainan.net.xml"/>
    </input>

    <output>
        <output-file value="C:\SUMO_TEST\rerouting\Tainan.net.xml"/>
        <output.street-names value="true"/>
    </output>

    <processing>
        <geometry.max-grade.fix value="false"/>
        <offset.disable-normalization value="true"/>
        <opposites.guess.fix-lengths value="true"/>
        <lefthand value="false"/>
    </processing>

    <junctions>
        <no-turnarounds value="true"/>
        <junctions.corner-detail value="0"/>
        <junctions.limit-turn-speed value="-1"/>
        <rectangular-lane-cut value="false"/>
    </junctions>

    <pedestrian>
        <walkingareas value="false"/>
    </pedestrian>

</configuration>
-->

<net version="1.3" xmlns:xsi="http://www.w3.org/2001/XMLSchema-instance" xsi:noNamespaceSchemaLocation="http://sumo.dlr.de/xsd/net_file.xsd">

    <location netOffset="-201696.04,-2456197.52" convBoundary="10717.55,87948.15,12549.94,90127.37" origBoundary="120.088108,22.194778,122.003643,25.109103" projParameter="+proj=utm +zone=51 +ellps=WGS84 +datum=WGS84 +units=m +no_defs"/>

    <type id="highway.bridleway" priority="1" numLanes="1" speed="13.89" allow="pedestrian" oneway="1" width="2.00"/>
    <type id="highway.bus_guideway" priority="1" numLanes="1" speed="13.89" allow="bus" oneway="1"/>
    <type id="highway.cycleway" priority="1" numLanes="1" speed="13.89" allow="bicycle" oneway="0" width="1.00"/>
    <type id="highway.footway" priority="1" numLanes="1" speed="13.89" allow="pedestrian" oneway="1" width="2.00"/>
    <type id="highway.ford" priority="1" numLanes="1" speed="13.89" allow="army" oneway="0"/>
    <type id="highway.living_street" priority="3" numLanes="1" speed="13.89" disallow="tram rail_urban rail rail_electric ship" oneway="0"/>
    <type id="highway.motorway" priority="13" numLanes="2" speed="13.89" allow="private emergency authority army vip passenger hov taxi bus coach delivery truck trailer motorcycle evehicle custom1 custom2" oneway="1"/>
    <type id="highway.motorway_link" priority="12" numLanes="1" speed="13.89" allow="private emergency authority army vip passenger hov taxi bus coach delivery truck trailer motorcycle evehicle custom1 custom2" oneway="1"/>
    <type id="highway.path" priority="1" numLanes="1" speed="13.89" allow="pedestrian bicycle" oneway="1" width="2.00"/>
    <type id="highway.pedestrian" priority="1" numLanes="1" speed="13.89" allow="pedestrian" oneway="1" width="2.00"/>
    <type id="highway.primary" priority="9" numLanes="2" speed="13.89" disallow="tram rail_urban rail rail_electric ship" oneway="0"/>
    <type id="highway.primary_link" priority="8" numLanes="1" speed="13.89" disallow="tram rail_urban rail rail_electric ship" oneway="0"/>
    <type id="highway.raceway" priority="14" numLanes="2" speed="13.89" allow="vip" oneway="0"/>
    <type id="highway.residential" priority="4" numLanes="1" speed="13.89" disallow="tram rail_urban rail rail_electric ship" oneway="0"/>
    <type id="highway.secondary" priority="7" numLanes="2" speed="13.89" disallow="tram rail_urban rail rail_electric ship" oneway="0"/>
    <type id="highway.secondary_link" priority="6" numLanes="1" speed="13.89" disallow="tram rail_urban rail rail_electric ship" oneway="0"/>
    <type id="highway.service" priority="2" numLanes="1" speed="13.89" allow="pedestrian delivery bicycle" oneway="0"/>
    <type id="highway.services" priority="1" numLanes="1" speed="13.89" disallow="tram rail_urban rail rail_electric ship" oneway="0"/>
    <type id="highway.stairs" priority="1" numLanes="1" speed="13.89" allow="pedestrian" oneway="1" width="2.00"/>
    <type id="highway.step" priority="1" numLanes="1" speed="13.89" allow="pedestrian" oneway="1" width="2.00"/>
    <type id="highway.steps" priority="1" numLanes="1" speed="13.89" allow="pedestrian" oneway="1" width="2.00"/>
    <type id="highway.tertiary" priority="6" numLanes="1" speed="13.89" disallow="tram rail_urban rail rail_electric ship" oneway="0"/>
    <type id="highway.tertiary_link" priority="5" numLanes="1" speed="13.89" disallow="tram rail_urban rail rail_electric ship" oneway="0"/>
    <type id="highway.track" priority="1" numLanes="1" speed="13.89" disallow="tram rail_urban rail rail_electric ship" oneway="0"/>
    <type id="highway.trunk" priority="11" numLanes="2" speed="13.89" disallow="pedestrian bicycle tram rail_urban rail rail_electric ship" oneway="0"/>
    <type id="highway.trunk_link" priority="10" numLanes="1" speed="13.89" disallow="pedestrian bicycle tram rail_urban rail rail_electric ship" oneway="0"/>
    <type id="highway.unclassified" priority="5" numLanes="1" speed="13.89" disallow="tram rail_urban rail rail_electric ship" oneway="0"/>
    <type id="highway.unsurfaced" priority="1" numLanes="1" speed="13.89" disallow="tram rail_urban rail rail_electric ship" oneway="0"/>
    <type id="railway.light_rail" priority="15" numLanes="1" speed="13.89" allow="rail_urban" oneway="1"/>
    <type id="railway.preserved" priority="15" numLanes="1" speed="13.89" allow="rail" oneway="1"/>
    <type id="railway.rail" priority="15" numLanes="1" speed="13.89" allow="rail rail_electric" oneway="1"/>
    <type id="railway.subway" priority="15" numLanes="1" speed="13.89" allow="rail_urban" oneway="1"/>
    <type id="railway.tram" priority="15" numLanes="1" speed="13.89" allow="tram" oneway="1"/>

    <edge id=":1235793595_0" function="internal">
        <lane id=":1235793595_0_0" index="0" disallow="tram rail_urban rail rail_electric rail_fast ship" speed="13.89" length="9.53" shape="10883.79,88680.03 10881.24,88680.53 10879.41,88681.72 10878.30,88683.58 10877.92,88686.13"/>
    </edge>
    <edge id=":1235793595_1" function="internal">
        <lane id=":1235793595_1_0" index="0" disallow="tram rail_urban rail rail_electric rail_fast ship" speed="13.89" length="14.68" shape="10883.79,88680.03 10869.11,88680.58"/>
    </edge>
    <edge id=":1235793595_2" function="internal">
        <lane id=":1235793595_2_0" index="0" disallow="tram rail_urban rail rail_electric rail_fast ship" speed="13.89" length="14.36" shape="10883.79,88680.03 10879.84,88679.68 10877.01,88678.14 10875.30,88675.42 10874.70,88671.50"/>
    </edge>
    <edge id=":1235793595_3" function="internal">
        <lane id=":1235793595_3_0" index="0" disallow="tram rail_urban rail rail_electric rail_fast ship" speed="13.89" length="9.04" shape="10877.90,88671.47 10878.28,88673.93 10879.36,88675.65 10881.14,88676.62 10883.62,88676.84"/>
    </edge>
    <edge id=":1235793595_4" function="internal">
        <lane id=":1235793595_4_0" index="0" disallow="tram rail_urban rail rail_electric rail_fast ship" speed="13.89" length="14.66" shape="10877.90,88671.47 10877.92,88686.13"/>
    </edge>
    <edge id=":1235793595_5" function="internal">
        <lane id=":1235793595_5_0" index="0" disallow="tram rail_urban rail rail_electric rail_fast ship" speed="13.89" length="14.40" shape="10877.90,88671.47 10877.38,88675.39 10875.75,88678.21 10872.99,88679.94 10869.11,88680.58"/>
    </edge>
    <edge id=":1235793595_6" function="internal">
        <lane id=":1235793595_6_0" index="0" disallow="tram rail_urban rail rail_electric rail_fast ship" speed="13.89" length="9.28" shape="10869.05,88677.38 10871.54,88676.97 10873.31,88675.85 10874.37,88674.03 10874.70,88671.50"/>
    </edge>
    <edge id=":1235793595_7" function="internal">
        <lane id=":1235793595_7_0" index="0" disallow="tram rail_urban rail rail_electric rail_fast ship" speed="13.89" length="14.58" shape="10869.05,88677.38 10883.62,88676.84"/>
    </edge>
    <edge id=":1235793595_8" function="internal">
        <lane id=":1235793595_8_0" index="0" disallow="tram rail_urban rail rail_electric rail_fast ship" speed="13.89" length="14.30" shape="10869.05,88677.38 10872.95,88677.86 10875.73,88679.48 10877.39,88682.23 10877.92,88686.13"/>
    </edge>
    <edge id=":1235793595_9" function="internal">
        <lane id=":1235793595_9_0" index="0" disallow="tram rail_urban rail rail_electric rail_fast ship" speed="13.89" length="9.03" shape="10874.72,88686.11 10874.38,88683.65 10873.34,88681.90 10871.58,88680.88 10869.11,88680.58"/>
    </edge>
    <edge id=":1235793595_10" function="internal">
        <lane id=":1235793595_10_0" index="0" disallow="tram rail_urban rail rail_electric rail_fast ship" speed="13.89" length="14.61" shape="10874.72,88686.11 10874.70,88671.50"/>
    </edge>
    <edge id=":1235793595_11" function="internal">
        <lane id=":1235793595_11_0" index="0" disallow="tram rail_urban rail rail_electric rail_fast ship" speed="13.89" length="14.47" shape="10874.72,88686.11 10875.30,88682.23 10876.97,88679.39 10879.75,88677.60 10883.62,88676.84"/>
    </edge>
    <edge id=":1235793758_0" function="internal">
        <lane id=":1235793758_0_0" index="0" disallow="tram rail_urban rail rail_electric rail_fast ship" speed="13.89" length="9.05" shape="11721.76,88851.88 11721.10,88849.44 11719.83,88847.90 11717.94,88847.26 11715.43,88847.53"/>
    </edge>
    <edge id=":1235793758_1" function="internal">
        <lane id=":1235793758_1_0" index="0" disallow="tram rail_urban rail rail_electric rail_fast ship" speed="13.89" length="21.00" shape="11721.76,88851.88 11719.19,88831.04"/>
    </edge>
    <edge id=":1235793758_2" function="internal">
        <lane id=":1235793758_2_0" index="0" disallow="tram rail_urban rail rail_electric rail_fast ship" speed="13.89" length="9.19" shape="11729.97,88845.40 11727.50,88845.86 11725.84,88847.03 11724.99,88848.91 11724.94,88851.50"/>
    </edge>
    <edge id=":1235793758_3" function="internal">
        <lane id=":1235793758_3_0" index="0" disallow="tram rail_urban rail rail_electric rail_fast ship" speed="13.89" length="15.09" shape="11729.97,88845.40 11725.60,88845.59 11722.61,88845.89 11719.67,88846.47 11715.43,88847.53"/>
        <lane id=":1235793758_3_1" index="1" disallow="tram rail_urban rail rail_electric rail_fast ship" speed="13.89" length="15.09" shape="11729.85,88842.20 11725.28,88842.40 11722.16,88842.71 11719.08,88843.32 11714.64,88844.42"/>
    </edge>
    <edge id=":1235793758_5" function="internal">
        <lane id=":1235793758_5_0" index="0" disallow="tram rail_urban rail rail_electric rail_fast ship" speed="13.89" length="9.95" shape="11722.36,88830.63 11723.08,88832.99 11724.52,88834.64 11726.70,88835.58 11729.61,88835.81"/>
    </edge>
    <edge id=":1235793758_6" function="internal">
        <lane id=":1235793758_6_0" index="0" disallow="tram rail_urban rail rail_electric rail_fast ship" speed="13.89" length="21.02" shape="11722.36,88830.63 11724.94,88851.50"/>
    </edge>
    <edge id=":1235793758_7" function="internal">
        <lane id=":1235793758_7_0" index="0" disallow="tram rail_urban rail rail_electric rail_fast ship" speed="13.89" length="10.47" shape="11713.06,88838.22 11716.01,88837.12 11718.01,88835.56 11719.07,88833.53 11719.19,88831.04"/>
    </edge>
    <edge id=":1235793758_8" function="internal">
        <lane id=":1235793758_8_0" index="0" disallow="tram rail_urban rail rail_electric rail_fast ship" speed="13.89" length="16.44" shape="11713.06,88838.22 11717.89,88837.02 11721.24,88836.36 11724.64,88836.03 11729.61,88835.81"/>
        <lane id=":1235793758_8_1" index="1" disallow="tram rail_urban rail rail_electric rail_fast ship" speed="13.89" length="16.44" shape="11713.85,88841.32 11718.49,88840.17 11721.70,88839.53 11724.96,88839.22 11729.73,88839.01"/>
    </edge>
    <edge id=":1240287603_0" function="internal">
        <lane id=":1240287603_0_0" index="0" disallow="tram rail_urban rail rail_electric rail_fast ship" speed="13.89" length="11.36" shape="11016.97,88990.09 11015.69,88988.01 11013.69,88986.47 11010.96,88985.47 11007.50,88985.01"/>
    </edge>
    <edge id=":1240287603_1" function="internal">
        <lane id=":1240287603_1_0" index="0" disallow="tram rail_urban rail rail_electric rail_fast ship" speed="13.89" length="14.82" shape="11016.97,88990.09 11012.02,88976.12"/>
    </edge>
    <edge id=":1240287603_2" function="internal">
        <lane id=":1240287603_2_0" index="0" disallow="tram rail_urban rail rail_electric rail_fast ship" speed="13.89" length="9.12" shape="11007.66,88981.81 11010.31,88981.58 11011.91,88980.55 11012.49,88978.73 11012.02,88976.12"/>
    </edge>
    <edge id=":1268711601_0" function="internal">
        <lane id=":1268711601_0_0" index="0" disallow="tram rail_urban rail rail_electric rail_fast ship" speed="13.89" length="9.07" shape="12212.09,89282.46 12211.18,89280.13 12209.76,89278.66 12207.81,89278.07 12205.34,89278.35"/>
    </edge>
    <edge id=":1268711601_1" function="internal">
        <lane id=":1268711601_1_0" index="0" disallow="tram rail_urban rail rail_electric rail_fast ship" speed="13.89" length="14.35" shape="12212.09,89282.46 12211.75,89278.52 12212.77,89275.47 12215.15,89273.30 12218.89,89272.02"/>
    </edge>
    <edge id=":1268711601_2" function="internal">
        <lane id=":1268711601_2_0" index="0" disallow="tram rail_urban rail rail_electric rail_fast ship" speed="13.89" length="9.04" shape="12219.49,89275.16 12217.14,89275.97 12215.64,89277.34 12214.99,89279.26 12215.21,89281.74"/>
    </edge>
    <edge id=":1268711601_3" function="internal">
        <lane id=":1268711601_3_0" index="0" disallow="tram rail_urban rail rail_electric rail_fast ship" speed="13.89" length="14.50" shape="12219.49,89275.16 12205.34,89278.35"/>
    </edge>
    <edge id=":1268711601_4" function="internal">
        <lane id=":1268711601_4_0" index="0" disallow="tram rail_urban rail rail_electric rail_fast ship" speed="13.89" length="14.72" shape="12204.53,89275.25 12218.89,89272.02"/>
    </edge>
    <edge id=":1268711601_5" function="internal">
        <lane id=":1268711601_5_0" index="0" disallow="tram rail_urban rail rail_electric rail_fast ship" speed="13.89" length="14.33" shape="12204.53,89275.25 12208.44,89274.81 12211.52,89275.75 12213.78,89278.06 12215.21,89281.74"/>
    </edge>
    <edge id=":1268711606_0" function="internal">
        <lane id=":1268711606_0_0" index="0" disallow="tram rail_urban rail rail_electric rail_fast ship" speed="13.89" length="17.86" shape="12553.48,89867.70 12553.24,89870.91 12551.16,89873.87 12547.24,89876.58 12541.48,89879.03"/>
    </edge>
    <edge id=":1268711606_1" function="internal">
        <lane id=":1268711606_1_0" index="0" disallow="tram rail_urban rail rail_electric rail_fast ship" speed="13.89" length="8.17" shape="12540.43,89876.01 12542.39,89875.00 12543.65,89873.60 12544.21,89871.80 12544.07,89869.61"/>
    </edge>
    <edge id=":1268711606_2" function="internal">
        <lane id=":1268711606_2_0" index="0" disallow="tram rail_urban rail rail_electric rail_fast ship" speed="13.89" length="10.65" shape="12540.43,89876.01 12543.73,89874.57 12545.96,89872.91 12547.12,89871.05 12547.21,89868.97"/>
    </edge>
    <edge id=":1649165602_0" function="internal">
        <lane id=":1649165602_0_0" index="0" disallow="tram rail_urban rail rail_electric rail_fast ship" speed="13.89" length="9.58" shape="12471.58,89441.62 12470.98,89439.25 12469.68,89437.54 12467.68,89436.49 12464.98,89436.11"/>
    </edge>
    <edge id=":1649165602_1" function="internal">
        <lane id=":1649165602_1_0" index="0" disallow="tram rail_urban rail rail_electric rail_fast ship" speed="13.89" length="14.41" shape="12471.58,89441.62 12470.34,89427.26"/>
    </edge>
    <edge id=":1649165602_2" function="internal">
        <lane id=":1649165602_2_0" index="0" disallow="tram rail_urban rail rail_electric rail_fast ship" speed="13.89" length="14.38" shape="12473.53,89427.01 12474.77,89441.33"/>
    </edge>
    <edge id=":1649165602_3" function="internal">
        <lane id=":1649165602_3_0" index="0" disallow="tram rail_urban rail rail_electric rail_fast ship" speed="13.89" length="5.90" shape="12473.53,89427.01 12473.28,89431.05 12472.41,89432.68"/>
    </edge>
    <edge id=":1649165602_6" function="internal">
        <lane id=":1649165602_6_0" index="0" disallow="tram rail_urban rail rail_electric rail_fast ship" speed="13.89" length="8.68" shape="12472.41,89432.68 12471.77,89433.91 12469.00,89435.60 12464.98,89436.11"/>
    </edge>
    <edge id=":1649165602_4" function="internal">
        <lane id=":1649165602_4_0" index="0" disallow="tram rail_urban rail rail_electric rail_fast ship" speed="13.89" length="9.04" shape="12465.04,89432.91 12467.53,89432.59 12469.25,89431.55 12470.18,89429.77 12470.34,89427.26"/>
    </edge>
    <edge id=":1649165602_5" function="internal">
        <lane id=":1649165602_5_0" index="0" disallow="tram rail_urban rail rail_electric rail_fast ship" speed="13.89" length="14.34" shape="12465.04,89432.91 12469.01,89433.49 12471.95,89435.09 12473.87,89437.70 12474.77,89441.33"/>
    </edge>
    <edge id=":1708122872_0" function="internal">
        <lane id=":1708122872_0_0" index="0" disallow="tram rail_urban rail rail_electric rail_fast ship" speed="13.89" length="0.10" shape="10963.64,89178.98 10963.64,89178.98"/>
    </edge>
    <edge id=":1708122872_1" function="internal">
        <lane id=":1708122872_1_0" index="0" disallow="tram rail_urban rail rail_electric rail_fast ship" speed="13.89" length="0.10" shape="10966.74,89178.22 10966.74,89178.22"/>
    </edge>
    <edge id=":1709211291_0" function="internal">
        <lane id=":1709211291_0_0" index="0" disallow="tram rail_urban rail rail_electric rail_fast ship" speed="13.89" length="9.03" shape="11027.79,89442.25 11026.87,89439.95 11025.44,89438.50 11023.49,89437.90 11021.02,89438.14"/>
    </edge>
    <edge id=":1709211291_1" function="internal">
        <lane id=":1709211291_1_0" index="0" disallow="tram rail_urban rail rail_electric rail_fast ship" speed="13.89" length="14.42" shape="11027.79,89442.25 11024.37,89428.24"/>
    </edge>
    <edge id=":1709211291_2" function="internal">
        <lane id=":1709211291_2_0" index="0" disallow="tram rail_urban rail rail_electric rail_fast ship" speed="13.89" length="14.22" shape="11027.79,89442.25 11027.41,89438.38 11028.37,89435.31 11030.65,89433.04 11034.25,89431.57"/>
    </edge>
    <edge id=":1709211291_3" function="internal">
        <lane id=":1709211291_3_0" index="0" disallow="tram rail_urban rail rail_electric rail_fast ship" speed="13.89" length="9.08" shape="11035.03,89434.67 11032.72,89435.61 11031.27,89437.06 11030.66,89439.02 11030.90,89441.49"/>
    </edge>
    <edge id=":1709211291_4" function="internal">
        <lane id=":1709211291_4_0" index="0" disallow="tram rail_urban rail rail_electric rail_fast ship" speed="13.89" length="14.43" shape="11035.03,89434.67 11021.02,89438.14"/>
    </edge>
    <edge id=":1709211291_5" function="internal">
        <lane id=":1709211291_5_0" index="0" disallow="tram rail_urban rail rail_electric rail_fast ship" speed="13.89" length="14.21" shape="11035.03,89434.67 11031.15,89435.07 11028.08,89434.13 11025.83,89431.86 11024.37,89428.24"/>
    </edge>
    <edge id=":1709211291_6" function="internal">
        <lane id=":1709211291_6_0" index="0" disallow="tram rail_urban rail rail_electric rail_fast ship" speed="13.89" length="9.03" shape="11027.48,89427.48 11028.41,89429.78 11029.84,89431.23 11031.79,89431.82 11034.25,89431.57"/>
    </edge>
    <edge id=":1709211291_7" function="internal">
        <lane id=":1709211291_7_0" index="0" disallow="tram rail_urban rail rail_electric rail_fast ship" speed="13.89" length="14.42" shape="11027.48,89427.48 11030.90,89441.49"/>
    </edge>
    <edge id=":1709211291_8" function="internal">
        <lane id=":1709211291_8_0" index="0" disallow="tram rail_urban rail rail_electric rail_fast ship" speed="13.89" length="14.21" shape="11027.48,89427.48 11027.86,89431.36 11026.91,89434.43 11024.63,89436.69 11021.02,89438.14"/>
    </edge>
    <edge id=":1709211291_9" function="internal">
        <lane id=":1709211291_9_0" index="0" disallow="tram rail_urban rail rail_electric rail_fast ship" speed="13.89" length="9.06" shape="11020.26,89435.04 11022.56,89434.11 11024.01,89432.67 11024.62,89430.71 11024.37,89428.24"/>
    </edge>
    <edge id=":1709211291_10" function="internal">
        <lane id=":1709211291_10_0" index="0" disallow="tram rail_urban rail rail_electric rail_fast ship" speed="13.89" length="14.42" shape="11020.26,89435.04 11034.25,89431.57"/>
    </edge>
    <edge id=":1709211291_11" function="internal">
        <lane id=":1709211291_11_0" index="0" disallow="tram rail_urban rail rail_electric rail_fast ship" speed="13.89" length="14.20" shape="11020.26,89435.04 11024.13,89434.65 11027.20,89435.60 11029.45,89437.88 11030.90,89441.49"/>
    </edge>
    <edge id=":1709211293_0" function="internal">
        <lane id=":1709211293_0_0" index="0" disallow="tram rail_urban rail rail_electric rail_fast ship" speed="13.89" length="9.03" shape="10885.38,89477.56 10884.45,89475.26 10883.01,89473.82 10881.06,89473.24 10878.60,89473.52"/>
    </edge>
    <edge id=":1709211293_1" function="internal">
        <lane id=":1709211293_1_0" index="0" disallow="tram rail_urban rail rail_electric rail_fast ship" speed="13.89" length="14.41" shape="10885.38,89477.56 10881.93,89463.57"/>
    </edge>
    <edge id=":1709211293_2" function="internal">
        <lane id=":1709211293_2_0" index="0" disallow="tram rail_urban rail rail_electric rail_fast ship" speed="13.89" length="9.10" shape="10877.79,89470.42 10880.10,89469.46 10881.56,89467.99 10882.17,89466.03 10881.93,89463.57"/>
    </edge>
    <edge id=":1709211297_0" function="internal">
        <lane id=":1709211297_0_0" index="0" disallow="tram rail_urban rail rail_electric rail_fast ship" speed="13.89" length="0.10" shape="11267.73,89738.16 11267.73,89738.16"/>
    </edge>
    <edge id=":1709211404_0" function="internal">
        <lane id=":1709211404_0_0" index="0" disallow="tram rail_urban rail rail_electric rail_fast ship" speed="13.89" length="0.10" shape="11302.45,89837.62 11302.45,89837.62"/>
    </edge>
    <edge id=":1709211413_0" function="internal">
        <lane id=":1709211413_0_0" index="0" disallow="tram rail_urban rail rail_electric rail_fast ship" speed="13.89" length="9.18" shape="11225.38,89950.59 11224.12,89948.42 11222.47,89947.16 11220.42,89946.81 11217.97,89947.38"/>
    </edge>
    <edge id=":1709211413_1" function="internal">
        <lane id=":1709211413_1_0" index="0" disallow="tram rail_urban rail rail_electric rail_fast ship" speed="13.89" length="14.50" shape="11225.38,89950.59 11219.95,89937.15"/>
    </edge>
    <edge id=":1709211413_2" function="internal">
        <lane id=":1709211413_2_0" index="0" disallow="tram rail_urban rail rail_electric rail_fast ship" speed="13.89" length="14.25" shape="11225.38,89950.59 11224.45,89946.79 11224.96,89943.62 11226.92,89941.08 11230.34,89939.17"/>
    </edge>
    <edge id=":1709211413_3" function="internal">
        <lane id=":1709211413_3_0" index="0" speed="13.89" length="9.03" shape="11231.49,89942.15 11229.33,89943.37 11228.08,89944.98 11227.76,89946.99 11228.35,89949.39"/>
    </edge>
    <edge id=":1709211413_4" function="internal">
        <lane id=":1709211413_4_0" index="0" disallow="tram rail_urban rail rail_electric rail_fast ship" speed="13.89" length="14.50" shape="11231.49,89942.15 11217.97,89947.38"/>
    </edge>
    <edge id=":1709211413_5" function="internal">
        <lane id=":1709211413_5_0" index="0" disallow="tram rail_urban rail rail_electric rail_fast ship" speed="13.89" length="14.29" shape="11231.49,89942.15 11227.68,89943.03 11224.49,89942.49 11221.91,89940.53 11219.95,89937.15"/>
    </edge>
    <edge id=":1709211413_6" function="internal">
        <lane id=":1709211413_6_0" index="0" disallow="tram rail_urban rail rail_electric rail_fast ship" speed="13.89" length="9.19" shape="11222.92,89935.95 11224.18,89938.12 11225.84,89939.39 11227.89,89939.73 11230.34,89939.17"/>
    </edge>
    <edge id=":1709211413_7" function="internal">
        <lane id=":1709211413_7_0" index="0" speed="13.89" length="14.50" shape="11222.92,89935.95 11228.35,89949.39"/>
    </edge>
    <edge id=":1709211413_8" function="internal">
        <lane id=":1709211413_8_0" index="0" disallow="tram rail_urban rail rail_electric rail_fast ship" speed="13.89" length="14.25" shape="11222.92,89935.95 11223.86,89939.75 11223.34,89942.92 11221.38,89945.46 11217.97,89947.38"/>
    </edge>
    <edge id=":1709211413_9" function="internal">
        <lane id=":1709211413_9_0" index="0" disallow="tram rail_urban rail rail_electric rail_fast ship" speed="13.89" length="9.03" shape="11216.82,89944.39 11218.98,89943.18 11220.22,89941.57 11220.55,89939.56 11219.95,89937.15"/>
    </edge>
    <edge id=":1709211413_10" function="internal">
        <lane id=":1709211413_10_0" index="0" disallow="tram rail_urban rail rail_electric rail_fast ship" speed="13.89" length="14.50" shape="11216.82,89944.39 11230.34,89939.17"/>
    </edge>
    <edge id=":1709211413_11" function="internal">
        <lane id=":1709211413_11_0" index="0" speed="13.89" length="14.29" shape="11216.82,89944.39 11220.62,89943.51 11223.81,89944.05 11226.39,89946.01 11228.35,89949.39"/>
    </edge>
    <edge id=":1709220941_0" function="internal">
        <lane id=":1709220941_0_0" index="0" disallow="tram rail_urban rail rail_electric rail_fast ship" speed="13.89" length="9.08" shape="11080.88,89596.25 11079.62,89594.12 11077.98,89592.90 11075.95,89592.58 11073.52,89593.18"/>
    </edge>
    <edge id=":1709220941_1" function="internal">
        <lane id=":1709220941_1_0" index="0" disallow="tram rail_urban rail rail_electric rail_fast ship" speed="13.89" length="14.40" shape="11080.88,89596.25 11075.42,89582.93"/>
    </edge>
    <edge id=":1709220941_2" function="internal">
        <lane id=":1709220941_2_0" index="0" disallow="tram rail_urban rail rail_electric rail_fast ship" speed="13.89" length="14.40" shape="11078.38,89581.71 11083.84,89595.04"/>
    </edge>
    <edge id=":1709220941_3" function="internal">
        <lane id=":1709220941_3_0" index="0" disallow="tram rail_urban rail rail_electric rail_fast ship" speed="13.89" length="5.93" shape="11078.38,89581.71 11079.33,89585.50 11079.02,89587.50"/>
    </edge>
    <edge id=":1709220941_6" function="internal">
        <lane id=":1709220941_6_0" index="0" disallow="tram rail_urban rail rail_electric rail_fast ship" speed="13.89" length="8.30" shape="11079.02,89587.50 11078.84,89588.67 11076.90,89591.23 11073.52,89593.18"/>
    </edge>
    <edge id=":1709220941_4" function="internal">
        <lane id=":1709220941_4_0" index="0" disallow="tram rail_urban rail rail_electric rail_fast ship" speed="13.89" length="9.03" shape="11072.33,89590.21 11074.48,89588.97 11075.71,89587.34 11076.02,89585.33 11075.42,89582.93"/>
    </edge>
    <edge id=":1709220941_5" function="internal">
        <lane id=":1709220941_5_0" index="0" disallow="tram rail_urban rail rail_electric rail_fast ship" speed="13.89" length="14.20" shape="11072.33,89590.21 11076.12,89589.28 11079.30,89589.78 11081.88,89591.70 11083.84,89595.04"/>
    </edge>
    <edge id=":1709220944_0" function="internal">
        <lane id=":1709220944_0_0" index="0" disallow="tram rail_urban rail rail_electric rail_fast ship" speed="13.89" length="9.07" shape="11775.77,89617.35 11775.03,89614.89 11773.70,89613.44 11771.79,89613.01 11769.29,89613.59"/>
    </edge>
    <edge id=":1709220944_1" function="internal">
        <lane id=":1709220944_1_0" index="0" disallow="tram rail_urban rail rail_electric rail_fast ship" speed="13.89" length="14.62" shape="11775.77,89617.35 11775.62,89613.15 11776.55,89609.74 11778.56,89607.12 11781.65,89605.29"/>
    </edge>
    <edge id=":1709220944_2" function="internal">
        <lane id=":1709220944_2_0" index="0" disallow="tram rail_urban rail rail_electric rail_fast ship" speed="13.89" length="10.29" shape="11782.83,89608.26 11780.75,89609.53 11779.41,89611.39 11778.80,89613.84 11778.93,89616.88"/>
    </edge>
    <edge id=":1709220944_3" function="internal">
        <lane id=":1709220944_3_0" index="0" disallow="tram rail_urban rail rail_electric rail_fast ship" speed="13.89" length="14.56" shape="11782.83,89608.26 11769.29,89613.59"/>
    </edge>
    <edge id=":1709220944_4" function="internal">
        <lane id=":1709220944_4_0" index="0" disallow="tram rail_urban rail rail_electric rail_fast ship" speed="13.89" length="14.53" shape="11768.13,89610.61 11781.65,89605.29"/>
    </edge>
    <edge id=":1709220944_5" function="internal">
        <lane id=":1709220944_5_0" index="0" disallow="tram rail_urban rail rail_electric rail_fast ship" speed="13.89" length="6.02" shape="11768.13,89610.61 11772.30,89609.64 11773.99,89610.02"/>
    </edge>
    <edge id=":1709220944_6" function="internal">
        <lane id=":1709220944_6_0" index="0" disallow="tram rail_urban rail rail_electric rail_fast ship" speed="13.89" length="9.10" shape="11773.99,89610.02 11775.49,89610.36 11777.70,89612.77 11778.93,89616.88"/>
    </edge>
    <edge id=":1709220953_0" function="internal">
        <lane id=":1709220953_0_0" index="0" disallow="tram rail_urban rail rail_electric rail_fast ship" speed="13.89" length="9.04" shape="10964.64,89637.23 10962.50,89638.48 10961.27,89640.11 10960.94,89642.12 10961.53,89644.53"/>
    </edge>
    <edge id=":1709220953_1" function="internal">
        <lane id=":1709220953_1_0" index="0" disallow="tram rail_urban rail rail_electric rail_fast ship" speed="13.89" length="9.03" shape="10956.16,89631.17 10957.40,89633.31 10959.03,89634.54 10961.04,89634.86 10963.44,89634.27"/>
    </edge>
    <edge id=":1709220953_2" function="internal">