<?xml version="1.0" encoding="UTF-8"?>

<!-- generated on 2023-04-28 11:13:50 by Eclipse SUMO duarouter Version 1.14.0
<configuration xmlns:xsi="http://www.w3.org/2001/XMLSchema-instance" xsi:noNamespaceSchemaLocation="http://sumo.dlr.de/xsd/duarouterConfiguration.xsd">

    <input>
        <net-file value="Tainan.net.xml"/>
        <additional-files value="vtype.xml"/>
        <route-files value="od_file.odtrips.xml"/>
    </input>

    <output>
        <output-file value="rou3/od_route_file.odtrips36.rou.xml"/>
    </output>

</configuration>
-->

<routes xmlns:xsi="http://www.w3.org/2001/XMLSchema-instance" xsi:noNamespaceSchemaLocation="http://sumo.dlr.de/xsd/routes_file.xsd">
    <vType id="0" speedFactor="normc(0.95,0.10,0.60,1.50)"/>
    <vehicle id="1351" type="0" depart="0.87" departLane="free" departSpeed="max" fromTaz="5" toTaz="10">
        <route edges="-41963902#10 -41963902#6 286847309#8 -496253677#19 -496253677#18 -496253677#17 -496253677#13 -496253677#9 -496253677#2 -499302825#3"/>
    </vehicle>
    <vehicle id="1789" type="0" depart="1.46" departLane="free" departSpeed="max" fromTaz="9" toTaz="11">
        <route edges="499302825#0 -496253677#0 -24452779#1 227913938#7 -274022921#6 -274022921#4 -274022921#3 -274022921#1 -496332201#4 -279032146#4 -279032146#2 319713269#4 319713269#5 319713269#7 31794905#0 307097146 297896463#0 297896463#2 297896463#3 306997494 -561994814#3 -561994814#0 562025614#0 gneE21 228022818#0 315886539#0 -496257360#5 -496257360#3 306997515#4"/>
    </vehicle>
    <vehicle id="134" type="0" depart="2.18" departLane="free" departSpeed="max" fromTaz="1" toTaz="8">
        <route edges="-306997496#1 306997514#0 -303889712#3 -303889712#1 -303889712#0 259871068#0 107538207#0 107538207#2 496253684#0 496253684#5 496253682#0 24452783#0 496253679#0 gneE27 521131212#0 521131212#1 521131212#2"/>
    </vehicle>
    <vehicle id="190" type="0" depart="2.41" departLane="free" departSpeed="max" fromTaz="12" toTaz="10">
        <route edges="-gneE5 496257360#4 496257361 315886538#0 142297097#0 315886540#0 259871068#0 107538207#0 107538207#2 496253685 365719024#0 319713269#10 319713269#2 24430153#0 306997497#0 286094870#0 286094870#3 -27067577#2 24452786#0 24452786#3 -496253677#9 -496253677#2 -499302825#3"/>
    </vehicle>
    <vehicle id="937" type="0" depart="2.60" departLane="free" departSpeed="max" fromTaz="18" toTaz="10">
        <route edges="160253722#1 159315422#0 -31794904#2 -31794904#0 107538178#1 286852568 -304476025#12 -304476025#11 -304476025#6 -304476025#3 -227913938#10 24452779#0 496253677#0 -499302825#3"/>
    </vehicle>
    <vehicle id="914" type="0" depart="3.65" departLane="free" departSpeed="max" fromTaz="16" toTaz="8">
        <route edges="41389169#12 41389169#14 496332200#0 496332200#2 496332200#5 41389183#0 159279412 306997497#0 286094870#0 286094870#3 286094870#7 286094870#11 496253677#14 496253677#18 496253677#19 286847309#10"/>
    </vehicle>
    <vehicle id="952" type="0" depart="4.74" departLane="free" departSpeed="max" fromTaz="18" toTaz="10">
        <route edges="-160913587 274022921#5 -227913938#10 24452779#0 496253677#0 496253677#1 27067557#0"/>
    </vehicle>
    <vehicle id="1827" type="0" depart="5.68" departLane="free" departSpeed="max" fromTaz="9" toTaz="13">
        <route edges="227913938#0 227913938#7 304476025#0 304476025#4 304476025#7 304476025#12 160253726 41389178 -160253727 -307096544#5 -307096544#3 -307096544#1 -496339496#3 24452776 72871329#0 72871329#1 72871329#2 72871329#3 27067581 228022808#0 556031052#1"/>
    </vehicle>
    <vehicle id="1424" type="0" depart="6.04" departLane="free" departSpeed="max" fromTaz="5" toTaz="15">
        <route edges="-496339475#2 -286847301#1 286847307#0 -161010065#9 -24452783#5 -286847289#0 -286094877 -286094874#4 -160253722#7 159315422#0 -31794904#2"/>
    </vehicle>
    <vehicle id="1753" type="0" depart="6.46" departLane="free" departSpeed="max" fromTaz="7" toTaz="8">
        <route edges="-521131212#2 -496253677#18 -496253677#17 286094870#15"/>
    </vehicle>
    <vehicle id="137" type="0" depart="6.65" departLane="free" departSpeed="max" fromTaz="1" toTaz="8">
        <route edges="-303889712#6 -303889712#3 -303889712#1 -303889712#0 259871068#0 107538207#0 107538207#2 496253684#0 496253684#5 496253682#0 -286847289#0 286094878#0 24452782#4 24452782#6 24452782#7"/>
    </vehicle>
    <vehicle id="391" type="0" depart="7.24" departLane="free" departSpeed="max" fromTaz="12" toTaz="8">
        <route edges="158995079#0 -561994814#3 41389167#0 554648350#0 496253684#0 496253684#5 496253682#0 24452783#0 496253679#0 gneE27 521131212#0 41963902#0 286847309#8 286847309#10"/>
    </vehicle>
    <vehicle id="1622" type="0" depart="8.04" departLane="free" departSpeed="max" fromTaz="7" toTaz="17">
        <route edges="-286094870#18 -286094870#14 -286094870#10 -286094870#6 -286094870#2 -286094874#4 -160253722#7 -160253722#3"/>
    </vehicle>
    <vehicle id="1641" type="0" depart="10.14" departLane="free" departSpeed="max" fromTaz="7" toTaz="17">
        <route edges="-24452782#8 -496253677#17 -496253677#13 -24452786#6 -24452786#2 gneE28 160913587"/>
    </vehicle>
    <vehicle id="623" type="0" depart="11.51" departLane="free" departSpeed="max" fromTaz="14" toTaz="8">
        <route edges="-228022792#1 72871344 72871329#2 72871329#3 72871329#4 72871329#5 436251058 159315419 496249898#1 297757243#0 259871043#0 319713269#7 319713269#8 319713269#10 107538204#0 -24452804 -286094881#1 286094878#0 24452782#4 -203481580#7 521131212#0 41963902#0 286847309#8 286847309#10"/>
    </vehicle>
    <vehicle id="738" type="0" depart="13.29" departLane="free" departSpeed="max" fromTaz="16" toTaz="13">
        <route edges="41389169#12 159315422#5 159315422#6 -71285598#6 -71285598#5 -496249903#1 -496249903#0 81509012#1 228022808#2 228022808#3 -81509011#2"/>
    </vehicle>
    <vehicle id="1341" type="0" depart="13.92" departLane="free" departSpeed="max" fromTaz="3" toTaz="8">
        <route edges="302240826#4 302240826#7 108037210#0 108037210#1 108037210#4 286847309#0 286847309#2 286847309#4 286847309#8 286847309#10"/>
    </vehicle>
    <vehicle id="1397" type="0" depart="15.83" departLane="free" departSpeed="max" fromTaz="5" toTaz="13">
        <route edges="-41963902#10 -41963902#6 228022815#4 203481580#2 -521131211 -496253680#2 -24452782#3 286094881#0 24452804 -521058769#1 -111343195#5 -111343195#2 -297896463#3 -297896463#2 -297896463#1 -286841509#4 -286841509#2 -279365144#3"/>
    </vehicle>
    <vehicle id="169" type="0" depart="17.40" departLane="free" departSpeed="max" fromTaz="12" toTaz="10">
        <route edges="158783758#2 158783758#7 -297896463#2 -297896463#1 -307097146 -31794905#4 319713269#8 319713269#10 319713269#2 24430153#0 306997497#0 286094870#0 286094870#3 -27067577#2 24452786#0 24452786#3 -496253677#9 27067557#0"/>
    </vehicle>
    <vehicle id="381" type="0" depart="17.72" departLane="free" departSpeed="max" fromTaz="12" toTaz="8">
        <route edges="297757252#0 496257361 315886538#0 142297097#0 315886540#0 259871068#0 107538207#0 107538207#2 496253684#0 496253684#5 496253682#0 24452783#0 496253679#0 gneE27 521131212#0 521131212#1 521131212#2"/>
    </vehicle>
    <vehicle id="376" type="0" depart="18.35" departLane="free" departSpeed="max" fromTaz="12" toTaz="8">
        <route edges="158995079#0 -306997494 111343195#0 111343195#3 521058769#0 -24452804 -286094881#1 286094878#0 24452782#4 24452782#6 24452782#7"/>
    </vehicle>
    <vehicle id="698" type="0" depart="21.05" departLane="free" departSpeed="max" fromTaz="16" toTaz="11">
        <route edges="159315419 496249898#1 297757247#0 297757247#3 297896463#0 297896463#2 -158783758#8 -158783758#6"/>
    </vehicle>
    <vehicle id="34" type="0" depart="21.42" departLane="free" departSpeed="max" fromTaz="1" toTaz="11">
        <route edges="158782352#4 306997513#5 259871045#1 -161036803#3 -161036803#0 -497943357#6 -497943357#4 -497943357#2 gneE24 228022818#0 315886539#0 315886539#2"/>
    </vehicle>
    <vehicle id="181" type="0" depart="23.08" departLane="free" departSpeed="max" fromTaz="12" toTaz="10">
        <route edges="158783758#2 158783758#7 -297896463#2 -297896463#1 -307097146 -31794905#4 319713269#8 319713269#10 319713269#2 24430153#0 306997497#0 286094870#0 286094870#3 -27067577#2 24452786#0 24452786#3 24452786#7"/>
    </vehicle>
    <vehicle id="1197" type="0" depart="25.62" departLane="free" departSpeed="max" fromTaz="3" toTaz="10">
        <route edges="-496332203#2 -496332204#1 302240826#7 -496253672 -286847289#0 -286094877 286094870#0 286094870#3 -27067577#2 24452786#0 24452786#3 -496253677#9 -496253677#2 -496253677#0 -496253674#1"/>
    </vehicle>
    <vehicle id="349" type="0" depart="25.98" departLane="free" departSpeed="max" fromTaz="12" toTaz="6">
        <route edges="162442431#0 162442431#4 306997514#0 306997514#7 306997514#10 306997514#13 306997492#0 161036803#0 161036803#1 545315834#1 545315834#2 496332204#0 496332204#1 546374573#0 546374573#5 496339475#0"/>
    </vehicle>
    <vehicle id="1638" type="0" depart="26.55" departLane="free" departSpeed="max" fromTaz="7" toTaz="17">
        <route edges="-521131212#2 -496253677#18 -496253677#17 -496253677#13 -24452786#6 -24452786#2 gneE28 160913587"/>
    </vehicle>
    <vehicle id="539" type="0" depart="26.66" departLane="free" departSpeed="max" fromTaz="14" toTaz="2">
        <route edges="-228022792#1 72871344 72871329#2 72871329#3 27067581 228022808#0 228022808#2 228022808#3 228022808#4 228022808#6 228022809#0 228022809#4 228022809#5 228022809#7 228022809#8 228022809#9 297757252#0 496257361 315886538#0 gneE23 315886536#1 306997496#0"/>
    </vehicle>
    <vehicle id="273" type="0" depart="27.32" departLane="free" departSpeed="max" fromTaz="12" toTaz="2">
        <route edges="-gneE5 -496257360#3 162442431#4 306997514#0 303889712#5"/>
    </vehicle>
    <vehicle id="1246" type="0" depart="29.81" departLane="free" departSpeed="max" fromTaz="3" toTaz="13">
        <route edges="-496332203#2 -496332204#1 -496332204#0 -545315834#2 -545315834#1 259871045#4 496493919#0 496493919#2 -521058769#1 -111343195#5 -111343195#2 -297896463#3 -297896463#2 -297896463#1 -286841509#4 -286841509#2 -279365144#3"/>
    </vehicle>
    <vehicle id="1040" type="0" depart="32.87" departLane="free" departSpeed="max" fromTaz="18" toTaz="15">
        <route edges="160253722#1 159315422#0 -31794904#2"/>
    </vehicle>
    <vehicle id="509" type="0" depart="33.45" departLane="free" departSpeed="max" fromTaz="14" toTaz="17">
        <route edges="-72871334#3 -72871334#0 72871329#3 72871329#4 72871329#5 436251058 159315419 496249903#0 496249903#1 71285598#5 -160321090 496332200#2 41389173#0 496332197#0 274022921#0 274022921#2 274022921#4 160913587"/>
    </vehicle>
    <vehicle id="1915" type="0" depart="33.87" departLane="free" departSpeed="max" fromTaz="9" toTaz="2">
        <route edges="496253674#0 -24452779#1 227913938#7 -274022921#6 -274022921#4 -274022921#3 -274022921#1 -496332201#4 -279032146#4 -279032146#2 319713269#4 319713269#5 319713269#7 31794905#0 307097146 297896463#0 297896463#2 297896463#3 306997494 -561994814#3 -561994814#0 562025614#0 gneE21 gneE23 315886536#1 306997496#0"/>
    </vehicle>
    <vehicle id="1198" type="0" depart="38.54" departLane="free" departSpeed="max" fromTaz="3" toTaz="10">
        <route edges="302240826#4 302240826#7 -496253672 -286847289#0 -286094877 286094870#0 286094870#3 -27067577#2 24452786#0 24452786#3 -496253677#9 27067557#0"/>
    </vehicle>
    <vehicle id="499" type="0" depart="40.80" departLane="free" departSpeed="max" fromTaz="14" toTaz="17">
        <route edges="-556031052#2 -81509012#2 496249903#0 496249903#1 71285598#5 -160321090 -496332200#1 -41389169#14 -159315422#4 -159315422#0 -160253722#3"/>
    </vehicle>
    <vehicle id="1714" type="0" depart="41.68" departLane="free" departSpeed="max" fromTaz="7" toTaz="6">
        <route edges="-24452782#8 496253677#18 -521131212#1 -521131212#0 -203481580#3 228022815#5 496253680#5 -297757248#1 496339475#0"/>
    </vehicle>
    <vehicle id="1375" type="0" depart="42.17" departLane="free" departSpeed="max" fromTaz="5" toTaz="11">
        <route edges="-496339476#3 -297757248#1 -546374573#5 -546374573#4 -496332204#1 -496332204#0 -545315834#2 -545315834#1 -161036803#3 -161036803#0 279369086#1 -159244459#2 -159244459#1 303889712#2 306997512#10 306997515#0 306997515#4"/>
    </vehicle>
    <vehicle id="478" type="0" depart="42.28" departLane="free" departSpeed="max" fromTaz="14" toTaz="15">
        <route edges="-228022792#1 72871344 72871329#2 72871329#3 72871329#4 72871329#5 72871331 158895303#0 152086640#0 -159315422#10 71285598#7"/>
    </vehicle>
    <vehicle id="981" type="0" depart="42.37" departLane="free" departSpeed="max" fromTaz="18" toTaz="11">
        <route edges="-160913587 -274022921#4 -274022921#3 -274022921#1 -496332201#4 -279032146#4 -279032146#2 319713269#4 319713269#5 319713269#7 31794905#0 307097146 297896463#0 297896463#2 297896463#3 306997494 -561994814#3 -561994814#0 562025614#0 gneE21 228022818#0 315886539#0 -496257360#5 -496257360#3 306997515#4"/>
    </vehicle>
    <vehicle id="971" type="0" depart="42.73" departLane="free" departSpeed="max" fromTaz="18" toTaz="11">
        <route edges="-160913587 -274022921#4 -274022921#3 -274022921#1 -496332201#4 -279032146#4 -279032146#2 319713269#4 319713269#5 319713269#7 31794905#0 307097146 297896463#0 297896463#2 297896463#3 306997494 -561994814#3 -561994814#0 562025614#0 gneE21 228022818#0 315886539#0 -496257360#5 -496257360#3 306997515#4"/>
    </vehicle>
    <vehicle id="1090" type="0" depart="42.87" departLane="free" departSpeed="max" fromTaz="18" toTaz="4">
        <route edges="160253722#1 160253722#4 286094874#0 286094877 286847289#0 286847289#1 107538164#0 496332204#1 496332203#0"/>
    </vehicle>
    <vehicle id="687" type="0" depart="44.51" departLane="free" departSpeed="max" fromTaz="16" toTaz="10">
        <route edges="41389169#12 -159315422#4 -31794904#2 -31794904#0 107538178#1 286852568 -304476025#12 -304476025#11 -304476025#6 -304476025#3 -227913938#10 24452779#0 -496253674#1"/>
    </vehicle>
    <vehicle id="1754" type="0" depart="46.40" departLane="free" departSpeed="max" fromTaz="7" toTaz="8">
        <route edges="-521131212#2 496253677#19 286847309#10"/>
    </vehicle>
    <vehicle id="1405" type="0" depart="46.89" departLane="free" departSpeed="max" fromTaz="5" toTaz="13">
        <route edges="-496253677#23 -496339477#7 -41963902#6 228022815#4 203481580#2 -521131211 -496253680#2 -24452782#3 286094881#0 24452804 -521058769#1 -111343195#5 -111343195#2 -297896463#3 -297896463#2 -297896463#1 -286841509#4 -286841509#2 -279365144#3"/>
    </vehicle>
    <vehicle id="954" type="0" depart="46.94" departLane="free" departSpeed="max" fromTaz="18" toTaz="10">
        <route edges="160253722#1 159315422#0 -31794904#2 -31794904#0 107538178#1 286852568 -304476025#12 -304476025#11 -304476025#6 -304476025#3 -227913938#10 24452779#0 496253677#0 496253677#1 27067557#0"/>
    </vehicle>
    <vehicle id="1150" type="0" depart="47.57" departLane="free" departSpeed="max" fromTaz="18" toTaz="6">
        <route edges="-160913587 gneE29 24452786#0 24452786#3 496253677#10 496253677#14 496253677#18 496253677#19 496253677#21 496253677#22"/>
    </vehicle>
    <vehicle id="953" type="0" depart="47.99" departLane="free" departSpeed="max" fromTaz="18" toTaz="10">
        <route edges="160253722#1 159315422#0 -31794904#2 -31794904#0 107538178#1 286852568 -304476025#12 -304476025#11 -304476025#6 -304476025#3 -227913938#10 24452779#0 496253677#0 496253677#1 27067557#0"/>
    </vehicle>
    <vehicle id="716" type="0" depart="48.23" departLane="free" departSpeed="max" fromTaz="16" toTaz="11">
        <route edges="159315419 496249898#1 297757247#0 297757247#3 297896463#0 297896463#2 297896463#3 306997494 -561994814#3 -561994814#0 562025614#0 gneE21 228022818#0 315886539#0 -496257360#5 -496257360#3 306997515#4"/>
    </vehicle>
    <vehicle id="1161" type="0" depart="49.80" departLane="free" departSpeed="max" fromTaz="18" toTaz="8">
        <route edges="-160913587 gneE29 24452786#0 24452786#3 496253677#10 286094870#15"/>
    </vehicle>
    <vehicle id="1430" type="0" depart="51.75" departLane="free" departSpeed="max" fromTaz="5" toTaz="15">
        <route edges="-496339476#3 -496253680#6 -496253680#3 -496253680#2 -27067577#6 -286094870#6 -286094870#2 -286094874#4 -160253722#7 159315422#0 -31794904#2"/>
    </vehicle>
    <vehicle id="1751" type="0" depart="52.43" departLane="free" departSpeed="max" fromTaz="7" toTaz="8">
        <route edges="228022815#0 -496253677#19 521131212#2"/>
    </vehicle>
    <vehicle id="1450" type="0" depart="53.38" departLane="free" departSpeed="max" fromTaz="5" toTaz="17">
        <route edges="-496339475#2 -286847301#1 286847307#0 -161010065#9 -24452783#5 -286847289#0 -286094877 -286094874#4 -160253722#7 -160253722#3"/>
    </vehicle>
    <vehicle id="1184" type="0" depart="54.15" departLane="free" departSpeed="max" fromTaz="18" toTaz="8">
        <route edges="-160913587 gneE29 24452786#0 24452786#3 496253677#10 286094870#15"/>
    </vehicle>
    <vehicle id="710" type="0" depart="54.90" departLane="free" departSpeed="max" fromTaz="16" toTaz="11">
        <route edges="31794904#1 31794904#3 496332196#0 496332196#1 496332199#0 259871063#0 307097146 297896463#0 297896463#2 297896463#3 306997494 -158995079#1"/>
    </vehicle>
    <vehicle id="1878" type="0" depart="55.86" departLane="free" departSpeed="max" fromTaz="9" toTaz="17">
        <route edges="227913938#0 227913938#7 -274022921#6 -274022921#4 -274022921#3 -274022921#1 -160253722#7 -160253722#3"/>
    </vehicle>
    <vehicle id="527" type="0" depart="57.18" departLane="free" departSpeed="max" fromTaz="14" toTaz="2">
        <route edges="81509011#0 228022808#4 228022808#6 228022809#0 228022809#4 228022809#5 228022809#7 228022809#8 228022809#9 297757252#0 496257361 315886538#0 gneE23 315886536#1 306997514#0 303889712#5"/>
    </vehicle>
    <vehicle id="1360" type="0" depart="57.31" departLane="free" departSpeed="max" fromTaz="5" toTaz="10">
        <route edges="-496339475#2 297757248#0 -496253680#6 286847309#2 203481580#2 203481580#4 -504514704#6 -504514704#4 24452786#3 -496253677#9 27067557#0"/>
    </vehicle>
    <vehicle id="108" type="0" depart="57.55" departLane="free" departSpeed="max" fromTaz="1" toTaz="17">
        <route edges="158895309#2 306997492#0 306997492#2 107538207#0 107538207#2 496253685 365719024#0 319713269#10 319713269#2 319713269#3 279032146#0 279032146#3 496332201#0 274022921#0 274022921#2 274022921#4 160913587"/>
    </vehicle>
    <vehicle id="1727" type="0" depart="58.04" departLane="free" departSpeed="max" fromTaz="7" toTaz="6">
        <route edges="-521131212#2 496253677#19 496253677#21 496253677#22"/>
    </vehicle>
    <vehicle id="667" type="0" depart="58.56" departLane="free" departSpeed="max" fromTaz="16" toTaz="10">
        <route edges="31794904#1 -159315422#0 -160253722#3 -160253722#0 286852568 -304476025#12 -304476025#11 -304476025#6 -304476025#3 -227913938#10 24452779#0 496253677#0 496253677#1 27067557#0"/>
    </vehicle>
    <vehicle id="644" type="0" depart="59.21" departLane="free" departSpeed="max" fromTaz="14" toTaz="8">
        <route edges="-72871334#3 -72871334#0 72871329#3 72871329#4 72871329#5 436251058 159315419 496249898#1 297757243#0 259871043#0 319713269#7 319713269#8 319713269#10 107538204#0 -24452804 -286094881#1 286094878#0 24452782#4 -203481580#7 521131212#0 41963902#0 286847309#8 286847309#10"/>
    </vehicle>
    <vehicle id="1869" type="0" depart="59.40" departLane="free" departSpeed="max" fromTaz="9" toTaz="17">
        <route edges="496253674#0 -24452779#1 227913938#7 -274022921#6 160913587"/>
    </vehicle>
    <vehicle id="240" type="0" depart="60.96" departLane="free" departSpeed="max" fromTaz="12" toTaz="15">
        <route edges="158783758#2 158783758#7 -297896463#2 -297896463#1 -297757247#3 -297757247#2 297757244#0 297757244#1"/>
    </vehicle>
    <vehicle id="193" type="0" depart="62.18" departLane="free" departSpeed="max" fromTaz="12" toTaz="11">
        <route edges="158783758#2 -81357763#0 496493905#3 306997494 -561994814#3 -561994814#0 562025614#0 gneE21 228022818#0 315886539#0 -496257360#5 -496257360#3 306997515#4"/>
    </vehicle>
    <vehicle id="1870" type="0" depart="63.30" departLane="free" departSpeed="max" fromTaz="9" toTaz="17">
        <route edges="-24452786#9 -24452786#6 -24452786#2 gneE28 160913587"/>
    </vehicle>
    <vehicle id="1254" type="0" depart="64.00" departLane="free" departSpeed="max" fromTaz="3" toTaz="13">
        <route edges="302240826#4 -496332204#0 -545315834#2 -545315834#1 259871045#4 496493919#0 496493919#2 286847273#0 319713269#2 319713269#3 319713269#4 319713269#5 72871326#0 259871042#0 297757244#0 297757244#1 228022791 24452776 72871329#0 72871329#1 72871329#2 72871334#0 72871334#1"/>
    </vehicle>
    <vehicle id="1578" type="0" depart="64.48" departLane="free" departSpeed="max" fromTaz="7" toTaz="13">
        <route edges="228022815#0 228022815#2 -41963902#4 -521131212#0 203481580#4 -24452782#5 -24452782#3 286094881#0 24452804 286847273#0 319713269#2 319713269#3 319713269#4 319713269#5 72871326#0 259871042#0 297757244#0 297757244#1 228022791 24452776 72871329#0 72871329#1 72871329#2 72871334#0 72871334#1"/>
    </vehicle>
    <vehicle id="883" type="0" depart="65.41" departLane="free" departSpeed="max" fromTaz="16" toTaz="6">
        <route edges="152086640#0 152086640#1 152086640#5 297757243#0 259871043#0 319713269#7 319713269#8 319713269#10 107538204#0 -24452804 -286094881#1 286094878#0 496253680#0 gneE27 -203481580#3 286847309#4 41963902#6 41963902#7"/>
    </vehicle>
    <vehicle id="83" type="0" depart="66.96" departLane="free" departSpeed="max" fromTaz="1" toTaz="15">
        <route edges="158895309#2 306997492#0 306997492#2 107538207#0 107538207#2 496253685 365719024#0 319713269#10 319713269#2 319713269#3 319713269#4 -496332198#4 -496332196#1 -496332196#0 -31794904#6 -31794904#2"/>
    </vehicle>
    <vehicle id="442" type="0" depart="69.65" departLane="free" departSpeed="max" fromTaz="14" toTaz="11">
        <route edges="-556031052#2 228022808#2 228022808#3 228022808#4 228022808#6 286841509#0 -81357763#3 -81357763#1 -158783758#6"/>
    </vehicle>
    <vehicle id="916" type="0" depart="70.57" departLane="free" departSpeed="max" fromTaz="16" toTaz="8">
        <route edges="-71285598#7 -159315422#7 -159315446#0 496332200#0 496332200#2 496332200#5 41389183#0 159279412 306997497#0 286094870#0 286094870#3 286094870#7 286094870#11 286094870#15"/>
    </vehicle>
    <vehicle id="54" type="0" depart="71.76" departLane="free" departSpeed="max" fromTaz="1" toTaz="13">
        <route edges="-306997496#1 -315886536#3 gneE24 gneE22 -562025614#0 561994814#0 561994814#1 -306997494 -297896463#3 -297896463#2 -297896463#1 -297757247#3 -297757247#2 297757244#0 297757244#1 228022791 24452776 72871329#0 72871329#1 72871329#2 72871334#0 72871334#1"/>
    </vehicle>
    <vehicle id="1035" type="0" depart="72.90" departLane="free" departSpeed="max" fromTaz="18" toTaz="15">
        <route edges="160253722#1 159315422#0 159315422#1 159315422#5 159315422#6 71285598#7"/>
    </vehicle>
    <vehicle id="1069" type="0" depart="73.17" departLane="free" departSpeed="max" fromTaz="18" toTaz="2">
        <route edges="160253722#1 160253722#4 -496332201#4 -279032146#4 -279032146#2 319713269#4 319713269#5 319713269#7 319713269#8 107538158#0 250710098#0 250710098#1 250710098#2 279369086#0 279369086#1 279369086#2 306997493#0"/>
    </vehicle>
    <vehicle id="1819" type="0" depart="73.17" departLane="free" departSpeed="max" fromTaz="9" toTaz="13">
        <route edges="227913938#0 227913938#7 304476025#0 304476025#4 304476025#7 304476025#12 160253726 41389178 -160253727 -307096544#5 -307096544#3 -307096544#1 -496339496#3 24452776 72871329#0 286847288#0 228022792#0"/>
    </vehicle>
    <vehicle id="179" type="0" depart="75.46" departLane="free" departSpeed="max" fromTaz="12" toTaz="10">
        <route edges="158783758#2 158783758#7 -297896463#2 -297896463#1 -307097146 -31794905#4 319713269#8 319713269#10 319713269#2 24430153#0 306997497#0 286094870#0 286094870#3 -27067577#2 24452786#0 24452786#3 -496253677#9 -496253677#2 -499302825#3"/>
    </vehicle>
    <vehicle id="1931" type="0" depart="75.74" departLane="free" departSpeed="max" fromTaz="9" toTaz="4">
        <route edges="227913938#0 227913938#7 -274022921#6 -274022921#4 -274022921#3 -274022921#1 286094874#0 286094877 286847289#0 286847289#1 107538164#0 -496332204#0 41389166#5"/>
    </vehicle>
    <vehicle id="917" type="0" depart="76.08" departLane="free" departSpeed="max" fromTaz="16" toTaz="8">
        <route edges="31794904#1 31794904#3 496332196#0 496332196#1 41389183#0 159279412 306997497#0 286094870#0 286094870#3 286094870#7 286094870#11 286094870#15"/>
    </vehicle>
    <vehicle id="1440" type="0" depart="76.30" departLane="free" departSpeed="max" fromTaz="5" toTaz="17">
        <route edges="-496339475#2 -286847301#1 286847309#0 -496253680#3 -496253680#2 -27067577#6 -27067577#2 gneE28 160913587"/>
    </vehicle>
    <vehicle id="407" type="0" depart="78.52" departLane="free" departSpeed="max" fromTaz="14" toTaz="10">
        <route edges="-556031052#2 -81509012#2 496249898#1 297757243#0 259871043#0 319713269#7 319713269#8 319713269#10 319713269#2 24430153#0 306997497#0 286094870#0 286094870#3 -27067577#2 24452786#0 24452786#3 24452786#7"/>
    </vehicle>
    <vehicle id="416" type="0" depart="78.56" departLane="free" departSpeed="max" fromTaz="14" toTaz="10">
        <route edges="279365144#1 286841509#0 286841509#3 -307097146 -31794905#4 319713269#8 319713269#10 319713269#2 24430153#0 306997497#0 286094870#0 286094870#3 -27067577#2 24452786#0 24452786#3 -496253677#9 -496253677#2 -499302825#3"/>
    </vehicle>
    <vehicle id="1966" type="0" depart="79.47" departLane="free" departSpeed="max" fromTaz="9" toTaz="6">
        <route edges="159307912 496253677#5 496253677#10 496253677#14 496253677#18 496253677#19 496253677#21 496253677#22"/>
    </vehicle>
    <vehicle id="1879" type="0" depart="79.84" departLane="free" departSpeed="max" fromTaz="9" toTaz="17">
        <route edges="227913938#0 227913938#7 -274022921#6 -274022921#4 -274022921#3 -274022921#1 -160253722#7 -160253722#3"/>
    </vehicle>
    <vehicle id="507" type="0" depart="81.94" departLane="free" departSpeed="max" fromTaz="14" toTaz="17">
        <route edges="279365144#1 286841509#0 286841509#3 -307097146 -259871063#1 -496332199#1 -496332196#1 -496332196#0 -31794904#6 -159315422#0 -160253722#3"/>
    </vehicle>
    <vehicle id="987" type="0" depart="82.39" departLane="free" departSpeed="max" fromTaz="18" toTaz="11">
        <route edges="160253722#1 159315422#0 31794904#3 496332196#0 496332196#1 496332199#0 259871063#0 307097146 297896463#0 297896463#2 297896463#3 306997494 -561994814#3 -561994814#0 562025614#0 gneE21 228022818#0 315886539#0 -496257360#5 gneE5"/>
    </vehicle>
    <vehicle id="1022" type="0" depart="85.09" departLane="free" departSpeed="max" fromTaz="18" toTaz="13">
        <route edges="160253722#1 159315422#0 159315422#1 41389169#14 496332200#0 160321090 -71285598#5 -496249903#1 -496249903#0 81509012#1 556031052#1"/>
    </vehicle>
    <vehicle id="817" type="0" depart="85.51" departLane="free" departSpeed="max" fromTaz="16" toTaz="2">
        <route edges="31794904#1 31794904#3 496332196#0 496332196#1 496332199#0 259871063#0 307097146 297896463#0 297896463#2 297896463#3 306997494 -561994814#3 -561994814#0 562025614#0 gneE21 gneE23 315886536#1 306997496#0"/>
    </vehicle>
    <vehicle id="1662" type="0" depart="85.91" departLane="free" departSpeed="max" fromTaz="7" toTaz="2">
        <route edges="228022815#0 228022815#2 228022815#4 228022815#5 228022815#6 286847307#0 286847307#2 286847310#0 496493917#0 250710099#0 250710099#3 496493902 303889712#0 303889712#1 303889712#2 306997512#10 306997496#0"/>
    </vehicle>
    <vehicle id="1887" type="0" depart="86.54" departLane="free" departSpeed="max" fromTaz="9" toTaz="17">
        <route edges="-24452786#9 -24452786#6 -24452786#2 gneE28 -274022921#4 -274022921#3 -274022921#1 -160253722#7 -160253722#3"/>
    </vehicle>
    <vehicle id="1079" type="0" depart="86.55" departLane="free" departSpeed="max" fromTaz="18" toTaz="2">
        <route edges="-160913587 -274022921#4 -274022921#3 -274022921#1 -496332201#4 -279032146#4 -279032146#2 319713269#4 319713269#5 319713269#7 319713269#8 107538158#0 250710098#0 250710098#1 250710098#2 279369086#0 279369086#1 279369086#2 306997493#0"/>
    </vehicle>
    <vehicle id="1136" type="0" depart="86.57" departLane="free" departSpeed="max" fromTaz="18" toTaz="6">
        <route edges="160253722#1 160253722#4 286094874#0 286094877 286847289#0 24452783#0 161010065#0 108037210#4 286847301#0 496339475#0"/>
    </vehicle>
    <vehicle id="5" type="0" depart="87.25" departLane="free" departSpeed="max" fromTaz="1" toTaz="10">
        <route edges="-303889712#6 -303889712#3 -303889712#1 -303889712#0 259871068#0 107538207#0 107538207#2 496253685 365719024#0 319713269#10 319713269#2 24430153#0 306997497#0 286094870#0 286094870#3 -27067577#2 24452786#0 24452786#3 24452786#7"/>
    </vehicle>
    <vehicle id="1781" type="0" depart="87.93" departLane="free" departSpeed="max" fromTaz="9" toTaz="11">
        <route edges="-24452786#9 -24452786#6 -24452786#2 27067577#0 -286094870#6 -286094870#2 -306997497#2 -24430153#1 319713269#3 319713269#4 319713269#5 319713269#7 31794905#0 307097146 297896463#0 297896463#2 297896463#3 306997494 -561994814#3 -561994814#0 562025614#0 gneE21 228022818#0 315886539#0 315886539#2"/>
    </vehicle>
    <vehicle id="350" type="0" depart="88.68" departLane="free" departSpeed="max" fromTaz="12" toTaz="6">