<?xml version="1.0" encoding="UTF-8"?>

<!-- generated on 2023-04-28 11:13:18 by Eclipse SUMO duarouter Version 1.14.0
<configuration xmlns:xsi="http://www.w3.org/2001/XMLSchema-instance" xsi:noNamespaceSchemaLocation="http://sumo.dlr.de/xsd/duarouterConfiguration.xsd">

    <input>
        <net-file value="Tainan.net.xml"/>
        <additional-files value="vtype.xml"/>
        <route-files value="od_file.odtrips.xml"/>
    </input>

    <output>
        <output-file value="rou3/od_route_file.odtrips17.rou.xml"/>
    </output>

</configuration>
-->

<routes xmlns:xsi="http://www.w3.org/2001/XMLSchema-instance" xsi:noNamespaceSchemaLocation="http://sumo.dlr.de/xsd/routes_file.xsd">
    <vType id="0" speedFactor="normc(0.95,0.10,0.60,1.50)"/>
    <vehicle id="532" type="0" depart="4.85" departLane="free" departSpeed="max" fromTaz="14" toTaz="2">
        <route edges="-72871334#3 -72871334#0 72871329#3 72871329#4 72871329#5 436251058 159315419 496249898#1 297757243#0 259871043#0 319713269#7 319713269#8 107538158#0 250710098#0 250710098#1 250710098#2 279369086#0 279369086#1 279369086#2 306997493#0"/>
    </vehicle>
    <vehicle id="1474" type="0" depart="4.91" departLane="free" departSpeed="max" fromTaz="5" toTaz="6">
        <route edges="-496339476#3 -297757248#1 496339475#0"/>
    </vehicle>
    <vehicle id="1413" type="0" depart="5.07" departLane="free" departSpeed="max" fromTaz="5" toTaz="13">
        <route edges="-496253677#23 -496339477#7 -41963902#6 228022815#4 203481580#2 -521131211 -496253680#2 -24452782#3 286094881#0 24452804 286847273#0 319713269#2 319713269#3 319713269#4 319713269#5 72871326#0 259871042#0 297757244#0 297757244#1 228022791 24452776 72871329#0 286847288#0 228022792#0"/>
    </vehicle>
    <vehicle id="32" type="0" depart="5.11" departLane="free" departSpeed="max" fromTaz="1" toTaz="11">
        <route edges="-571719005#1 306997514#13 306997492#0 -497943357#6 -497943357#4 -497943357#2 315886536#1 306997515#0 306997515#4"/>
    </vehicle>
    <vehicle id="352" type="0" depart="5.35" departLane="free" departSpeed="max" fromTaz="12" toTaz="6">
        <route edges="297757252#0 496257361 315886538#0 142297097#0 315886540#0 259871068#0 298812493#0 298812493#1 496493914 38367679#0 38367679#2 108037210#0 158854903#0 546374573#0 546374573#5 297757248#0 496339477#0 496339477#3 496339477#6 496253677#22"/>
    </vehicle>
    <vehicle id="1514" type="0" depart="5.56" departLane="free" departSpeed="max" fromTaz="7" toTaz="10">
        <route edges="228022815#0 -496253677#19 -496253677#18 -496253677#17 -496253677#13 -496253677#9 -496253677#2 -496253677#0 -24452779#1 -227913938#6"/>
    </vehicle>
    <vehicle id="59" type="0" depart="7.34" departLane="free" departSpeed="max" fromTaz="1" toTaz="13">
        <route edges="158895309#2 306997512#1 306997512#4 306997512#7 -303889712#3 -303889712#1 -497943357#2 gneE24 228022818#0 315886539#0 315886539#2 279365155#0 279365155#1 279365155#2 279365155#3 279365155#4 279365155#5 496257364#0 496257364#1 -279365144#3"/>
    </vehicle>
    <vehicle id="1716" type="0" depart="7.64" departLane="free" departSpeed="max" fromTaz="7" toTaz="6">
        <route edges="-521131212#2 496253677#19 496253677#21 496253677#22"/>
    </vehicle>
    <vehicle id="906" type="0" depart="7.79" departLane="free" departSpeed="max" fromTaz="16" toTaz="8">
        <route edges="31794904#1 31794904#3 496332196#0 496332196#1 41389183#0 159279412 306997497#0 286094870#0 286094870#3 286094870#7 286094870#11 286094870#15"/>
    </vehicle>
    <vehicle id="1039" type="0" depart="8.12" departLane="free" departSpeed="max" fromTaz="18" toTaz="15">
        <route edges="160253722#1 159315422#0 -31794904#2"/>
    </vehicle>
    <vehicle id="1607" type="0" depart="9.73" departLane="free" departSpeed="max" fromTaz="7" toTaz="15">
        <route edges="-24452782#8 -496253677#17 -286094870#14 -286094870#10 -286094870#6 -286094870#2 -306997497#2 -24430153#1 319713269#3 319713269#4 319713269#5 72871326#0 259871042#0 297757244#0 297757244#1"/>
    </vehicle>
    <vehicle id="558" type="0" depart="10.09" departLane="free" departSpeed="max" fromTaz="14" toTaz="4">
        <route edges="-72871334#3 -72871334#0 72871329#3 72871329#4 72871329#5 436251058 159315419 496249898#1 297757243#0 259871043#0 319713269#7 319713269#8 319713269#10 107538204#0 250710092#0 496253684#5 -552358549#4 38367679#0 41389166#0 496332204#0 -302240826#6"/>
    </vehicle>
    <vehicle id="380" type="0" depart="10.74" departLane="free" departSpeed="max" fromTaz="12" toTaz="8">
        <route edges="158995079#0 -306997494 111343195#0 111343195#3 365719024#0 319713269#10 319713269#2 24430153#0 306997497#0 286094870#0 286094870#3 286094870#7 286094870#11 286094870#15"/>
    </vehicle>
    <vehicle id="201" type="0" depart="10.81" departLane="free" departSpeed="max" fromTaz="12" toTaz="11">
        <route edges="158783758#2 -81357763#0 496493905#3 306997494 -158995079#1"/>
    </vehicle>
    <vehicle id="1156" type="0" depart="13.49" departLane="free" departSpeed="max" fromTaz="18" toTaz="8">
        <route edges="-160913587 gneE29 24452786#0 24452786#3 496253677#10 286094870#15"/>
    </vehicle>
    <vehicle id="437" type="0" depart="13.94" departLane="free" departSpeed="max" fromTaz="14" toTaz="10">
        <route edges="-556031052#2 -81509012#2 496249898#1 297757243#0 259871043#0 319713269#7 319713269#8 319713269#10 319713269#2 24430153#0 306997497#0 286094870#0 286094870#3 -27067577#2 24452786#0 24452786#3 24452786#7"/>
    </vehicle>
    <vehicle id="695" type="0" depart="14.35" departLane="free" departSpeed="max" fromTaz="16" toTaz="10">
        <route edges="41389169#12 -159315422#4 -31794904#2 -31794904#0 107538178#1 286852568 -304476025#12 -304476025#11 -304476025#6 -304476025#3 -227913938#10 -227913938#6"/>
    </vehicle>
    <vehicle id="1479" type="0" depart="15.22" departLane="free" departSpeed="max" fromTaz="5" toTaz="6">
        <route edges="-496339476#3 -297757248#1 496339475#0"/>
    </vehicle>
    <vehicle id="1088" type="0" depart="16.74" departLane="free" departSpeed="max" fromTaz="18" toTaz="4">
        <route edges="160253722#1 160253722#4 286094874#0 286094877 286847289#0 24452783#0 161010065#0 161010072#1 161010072#3"/>
    </vehicle>
    <vehicle id="154" type="0" depart="17.22" departLane="free" departSpeed="max" fromTaz="1" toTaz="8">
        <route edges="158895309#2 306997492#0 306997492#2 107538207#0 107538207#2 496253684#0 496253684#5 496253682#0 24452783#0 496253679#0 gneE27 521131212#0 521131212#1 521131212#2"/>
    </vehicle>
    <vehicle id="692" type="0" depart="17.53" departLane="free" departSpeed="max" fromTaz="16" toTaz="10">
        <route edges="-71285598#7 -159315422#7 -159315422#5 -159315422#4 -31794904#2 -31794904#0 107538178#1 286852568 -304476025#12 -304476025#11 -304476025#6 -304476025#3 -227913938#10 24452779#0 -496253674#1"/>
    </vehicle>
    <vehicle id="1828" type="0" depart="21.56" departLane="free" departSpeed="max" fromTaz="9" toTaz="13">
        <route edges="159307912 -496253677#2 -496253677#0 -24452779#1 227913938#7 304476025#0 304476025#4 304476025#7 304476025#12 160253726 41389178 -160253727 -307096544#5 -307096544#3 -307096544#1 -496339496#3 24452776 72871329#0 72871329#1 72871329#2 72871334#0 72871334#1"/>
    </vehicle>
    <vehicle id="1715" type="0" depart="21.98" departLane="free" departSpeed="max" fromTaz="7" toTaz="6">
        <route edges="-521131212#2 496253677#19 496253677#21 496253677#22"/>
    </vehicle>
    <vehicle id="1848" type="0" depart="22.10" departLane="free" departSpeed="max" fromTaz="9" toTaz="15">
        <route edges="496253674#0 -24452779#1 227913938#7 304476025#0 304476025#4 304476025#7 304476025#12 160253726 41389178 107538178#0 31794904#0 31794904#1 159315422#1 159315422#5 159315422#6 71285598#7"/>
    </vehicle>
    <vehicle id="933" type="0" depart="22.53" departLane="free" departSpeed="max" fromTaz="18" toTaz="10">
        <route edges="-160913587 gneE29 24452786#0 24452786#3 24452786#7"/>
    </vehicle>
    <vehicle id="1332" type="0" depart="24.19" departLane="free" departSpeed="max" fromTaz="3" toTaz="8">
        <route edges="302240826#4 302240826#7 -496253672 -286847289#0 -286094877 286094870#0 286094870#3 286094870#7 286094870#11 286094870#15"/>
    </vehicle>
    <vehicle id="1771" type="0" depart="26.58" departLane="free" departSpeed="max" fromTaz="9" toTaz="11">
        <route edges="227913938#0 227913938#7 -274022921#6 -274022921#4 -274022921#3 -274022921#1 -496332201#4 -279032146#4 -279032146#2 319713269#4 319713269#5 319713269#7 31794905#0 307097146 297896463#0 297896463#2 297896463#3 306997494 -158995079#1"/>
    </vehicle>
    <vehicle id="918" type="0" depart="26.98" departLane="free" departSpeed="max" fromTaz="16" toTaz="8">
        <route edges="159315419 496249898#1 297757243#0 259871043#0 319713269#7 319713269#8 319713269#10 107538204#0 -24452804 -286094881#1 286094878#0 24452782#4 24452782#6 24452782#7"/>
    </vehicle>
    <vehicle id="1094" type="0" depart="27.29" departLane="free" departSpeed="max" fromTaz="18" toTaz="4">
        <route edges="160253722#1 160253722#4 286094874#0 286094877 286847289#0 24452783#0 161010065#0 161010072#1 161010072#3"/>
    </vehicle>
    <vehicle id="1309" type="0" depart="30.10" departLane="free" departSpeed="max" fromTaz="3" toTaz="4">
        <route edges="-496332203#2 546374573#0 161010072#3"/>
    </vehicle>
    <vehicle id="572" type="0" depart="34.43" departLane="free" departSpeed="max" fromTaz="14" toTaz="4">
        <route edges="-228022792#1 72871344 72871329#2 72871329#3 72871329#4 72871329#5 436251058 159315419 496249898#1 297757243#0 259871043#0 319713269#7 319713269#8 319713269#10 107538204#0 250710092#0 496253684#5 -552358549#4 38367679#0 41389166#0 496332204#0 -302240826#6"/>
    </vehicle>
    <vehicle id="999" type="0" depart="34.79" departLane="free" departSpeed="max" fromTaz="18" toTaz="13">
        <route edges="160253722#1 159315422#0 159315422#1 41389169#14 496332200#0 160321090 -71285598#5 -496249903#1 -496249903#0 81509012#1 228022808#2 228022808#3 -81509011#2"/>
    </vehicle>
    <vehicle id="1925" type="0" depart="35.33" departLane="free" departSpeed="max" fromTaz="9" toTaz="4">
        <route edges="159307912 496253677#5 -24452786#6 -24452786#2 27067577#0 27067577#3 496253680#0 -496253679#6 161010065#0 161010072#1 -546374573#4 496332203#0"/>
    </vehicle>
    <vehicle id="1628" type="0" depart="37.13" departLane="free" departSpeed="max" fromTaz="7" toTaz="17">
        <route edges="228022815#0 -496253677#19 -496253677#18 -496253677#17 -286094870#14 -286094870#10 -286094870#6 -286094870#2 -286094874#4 -160253722#7 -160253722#3"/>
    </vehicle>
    <vehicle id="851" type="0" depart="37.41" departLane="free" departSpeed="max" fromTaz="16" toTaz="4">
        <route edges="41389169#12 41389169#14 496332200#0 496332200#2 496332200#5 41389183#0 159279412 306997498#0 -286094881#1 286847289#0 24452783#0 161010065#0 161010072#1 161010072#3"/>
    </vehicle>
    <vehicle id="1975" type="0" depart="39.57" departLane="free" departSpeed="max" fromTaz="9" toTaz="6">
        <route edges="499302825#0 496253677#1 496253677#5 496253677#10 496253677#14 496253677#18 496253677#19 228022815#2 41963902#6 41963902#7"/>
    </vehicle>
    <vehicle id="299" type="0" depart="39.75" departLane="free" departSpeed="max" fromTaz="12" toTaz="2">
        <route edges="158995079#0 -561994814#3 41389167#0 536826453 496253687#1 303889712#0 497943357#3 497943357#5 279369086#1 279369086#2 306997513#1 -158782352#5"/>
    </vehicle>
    <vehicle id="1816" type="0" depart="39.90" departLane="free" departSpeed="max" fromTaz="9" toTaz="13">
        <route edges="499302825#0 -496253677#0 -24452779#1 227913938#7 304476025#0 304476025#4 304476025#7 304476025#12 160253726 41389178 -160253727 -307096544#5 -307096544#3 -307096544#1 -496339496#3 24452776 72871329#0 72871329#1 72871329#2 72871329#3 27067581 228022808#0 228022808#2 228022808#3 -81509011#2"/>
    </vehicle>
    <vehicle id="1259" type="0" depart="40.62" departLane="free" departSpeed="max" fromTaz="3" toTaz="13">
        <route edges="-496332203#2 -496332204#1 -496332204#0 -545315834#2 -545315834#1 259871045#4 496493919#0 496493919#2 286847273#0 319713269#2 319713269#3 319713269#4 319713269#5 72871326#0 259871042#0 297757244#0 297757244#1 228022791 24452776 72871329#0 286847288#0 228022792#0"/>
    </vehicle>
    <vehicle id="222" type="0" depart="40.90" departLane="free" departSpeed="max" fromTaz="12" toTaz="15">
        <route edges="158995079#0 -306997494 -297896463#3 -297896463#2 -297896463#1 -297757247#3 -297757247#2 297757244#0 297757244#1"/>
    </vehicle>
    <vehicle id="674" type="0" depart="41.13" departLane="free" departSpeed="max" fromTaz="16" toTaz="10">
        <route edges="159315419 496249903#0 496249903#1 71285598#5 -160321090 -496332200#1 -41389169#14 -159315422#4 -31794904#2 -31794904#0 107538178#1 286852568 -304476025#12 -304476025#11 -304476025#6 -304476025#3 -227913938#10 24452779#0 496253677#0 -499302825#3"/>
    </vehicle>
    <vehicle id="1786" type="0" depart="41.18" departLane="free" departSpeed="max" fromTaz="9" toTaz="11">
        <route edges="159307912 496253677#5 -24452786#6 -24452786#2 27067577#0 -286094870#6 -286094870#2 -306997497#2 -24430153#1 319713269#3 319713269#4 319713269#5 319713269#7 31794905#0 307097146 297896463#0 297896463#2 297896463#3 306997494 -561994814#3 -561994814#0 562025614#0 gneE21 228022818#0 315886539#0 315886539#2"/>
    </vehicle>
    <vehicle id="650" type="0" depart="41.21" departLane="free" departSpeed="max" fromTaz="14" toTaz="8">
        <route edges="-556031052#2 -81509012#2 496249898#1 297757243#0 259871043#0 319713269#7 319713269#8 319713269#10 107538204#0 -24452804 -286094881#1 286094878#0 24452782#4 24452782#6 496253677#18 521131212#2"/>
    </vehicle>
    <vehicle id="174" type="0" depart="41.42" departLane="free" departSpeed="max" fromTaz="12" toTaz="10">
        <route edges="297757252#0 496257361 315886538#0 142297097#0 315886540#0 259871068#0 107538207#0 107538207#2 496253685 365719024#0 319713269#10 319713269#2 319713269#3 279032146#0 279032146#3 496332201#0 274022921#0 274022921#2 274022921#4 274022921#5 -227913938#10 24452779#0 -496253674#1"/>
    </vehicle>
    <vehicle id="538" type="0" depart="46.21" departLane="free" departSpeed="max" fromTaz="14" toTaz="2">
        <route edges="-228022792#1 72871344 72871329#2 72871329#3 72871329#4 72871329#5 436251058 159315419 496249898#1 297757243#0 259871063#0 307097147#0 307097147#3 536826453 496253687#1 303889712#0 303889712#1 303889712#2 306997514#7 306997514#10 571719005#0"/>
    </vehicle>
    <vehicle id="1626" type="0" depart="46.51" departLane="free" departSpeed="max" fromTaz="7" toTaz="17">
        <route edges="228022815#0 -496253677#19 -496253677#18 -496253677#17 -286094870#14 -286094870#10 -286094870#6 -286094870#2 -286094874#4 -160253722#7 -160253722#3"/>
    </vehicle>
    <vehicle id="253" type="0" depart="47.20" departLane="free" departSpeed="max" fromTaz="12" toTaz="17">
        <route edges="162442431#0 496257360#1 496257360#4 496257361 315886538#0 gneE22 -562025614#0 561994814#0 561994814#1 -306997494 -297896463#3 -297896463#2 -297896463#1 -307097146 -259871063#1 -496332199#1 -496332196#1 -496332196#0 -31794904#6 -159315422#0 -160253722#3"/>
    </vehicle>
    <vehicle id="61" type="0" depart="47.54" departLane="free" departSpeed="max" fromTaz="1" toTaz="13">
        <route edges="-571719005#1 306997514#13 306997492#0 -497943357#6 -497943357#4 -497943357#2 gneE24 228022818#0 315886539#0 315886539#2 279365155#0 279365155#1 279365155#2 279365155#3 279365155#4 279365155#5 496257364#0 496257364#1 306974310#0 306974310#1 306974310#2 306974310#3 556031052#1"/>
    </vehicle>
    <vehicle id="1529" type="0" depart="48.37" departLane="free" departSpeed="max" fromTaz="7" toTaz="11">
        <route edges="228022815#0 228022815#2 -41963902#4 -521131212#0 -521131211 -496253679#6 -24452783#5 -496253682#3 -496253684#6 -496253684#3 -554648350#1 -562025613 561994814#1 -158995079#1"/>
    </vehicle>
    <vehicle id="1012" type="0" depart="49.01" departLane="free" departSpeed="max" fromTaz="18" toTaz="13">
        <route edges="-160913587 -274022921#4 -274022921#3 -274022921#1 -496332197#5 -41389173#1 -496332200#4 160321090 -71285598#5 -496249903#1 -496249903#0 81509012#1 228022808#2 228022808#3 -81509011#2"/>
    </vehicle>
    <vehicle id="1493" type="0" depart="50.71" departLane="free" departSpeed="max" fromTaz="5" toTaz="8">
        <route edges="-41963902#10 496339477#6 -496253677#21 286847309#10"/>
    </vehicle>
    <vehicle id="707" type="0" depart="50.73" departLane="free" departSpeed="max" fromTaz="16" toTaz="11">
        <route edges="159315419 496249898#1 297757247#0 297757247#3 297896463#0 297896463#2 297896463#3 306997494 -158995079#1"/>
    </vehicle>
    <vehicle id="760" type="0" depart="50.99" departLane="free" departSpeed="max" fromTaz="16" toTaz="13">
        <route edges="152086640#0 152086640#1 -496249903#0 297757244#1 228022791 24452776 72871329#0 286847288#0 228022792#0"/>
    </vehicle>
    <vehicle id="651" type="0" depart="50.99" departLane="free" departSpeed="max" fromTaz="14" toTaz="8">
        <route edges="81509011#0 228022808#4 228022808#6 286841509#0 286841509#3 -307097146 -31794905#4 319713269#8 319713269#10 107538204#0 -24452804 -286094881#1 286094878#0 24452782#4 -203481580#7 521131212#0 41963902#0 286847309#8 286847309#10"/>
    </vehicle>
    <vehicle id="1560" type="0" depart="51.08" departLane="free" departSpeed="max" fromTaz="7" toTaz="13">
        <route edges="228022815#0 228022815#2 -41963902#4 -521131212#0 203481580#4 -24452782#5 -24452782#3 286094881#0 24452804 -521058769#1 -111343195#5 -111343195#2 -297896463#3 -297896463#2 -297896463#1 -286841509#4 -286841509#2 306974310#0 306974310#1 -81509011#2"/>
    </vehicle>
    <vehicle id="701" type="0" depart="53.70" departLane="free" departSpeed="max" fromTaz="16" toTaz="11">
        <route edges="152086640#0 152086640#1 152086640#5 297757247#0 297757247#3 297896463#0 297896463#2 -158783758#8 -158783758#6"/>
    </vehicle>
    <vehicle id="288" type="0" depart="53.89" departLane="free" departSpeed="max" fromTaz="12" toTaz="2">
        <route edges="297757252#0 496257361 315886538#0 gneE23 497943357#0 497943357#3 497943357#5 279369086#1 279369086#2 306997513#1 -158782352#5"/>
    </vehicle>
    <vehicle id="1116" type="0" depart="55.59" departLane="free" departSpeed="max" fromTaz="18" toTaz="4">
        <route edges="-160913587 -274022921#4 -274022921#3 -274022921#1 286094874#0 286094877 286847289#0 286847289#1 107538164#0 496332204#1 496332203#0"/>
    </vehicle>
    <vehicle id="1103" type="0" depart="56.71" departLane="free" departSpeed="max" fromTaz="18" toTaz="4">
        <route edges="160253722#1 160253722#4 286094874#0 286094877 286847289#0 286847289#1 107538164#0 -496332204#0 41389166#5"/>
    </vehicle>
    <vehicle id="340" type="0" depart="58.34" departLane="free" departSpeed="max" fromTaz="12" toTaz="6">
        <route edges="162442431#0 162442431#4 306997514#0 306997514#7 306997514#10 306997514#13 306997492#0 161036803#0 161036803#1 545315834#1 545315834#2 496332204#0 496332204#1 546374573#0 546374573#5 297757248#0 496339477#0 496339477#3 496339477#6 496253677#22"/>
    </vehicle>
    <vehicle id="1363" type="0" depart="60.04" departLane="free" departSpeed="max" fromTaz="5" toTaz="10">
        <route edges="-41963902#10 -41963902#6 286847309#8 -496253677#19 -496253677#18 -496253677#17 -496253677#13 -496253677#9 -496253677#2 -499302825#3"/>
    </vehicle>
    <vehicle id="1173" type="0" depart="60.59" departLane="free" departSpeed="max" fromTaz="18" toTaz="8">
        <route edges="-160913587 gneE29 24452786#0 24452786#3 496253677#10 496253677#14 496253677#18 496253677#19 286847309#10"/>
    </vehicle>
    <vehicle id="1096" type="0" depart="60.69" departLane="free" departSpeed="max" fromTaz="18" toTaz="4">
        <route edges="-160913587 -274022921#4 -274022921#3 -274022921#1 286094874#0 286094877 286847289#0 286847289#1 107538164#0 -496332204#0 41389166#5"/>
    </vehicle>
    <vehicle id="1032" type="0" depart="62.59" departLane="free" departSpeed="max" fromTaz="18" toTaz="13">
        <route edges="160253722#1 159315422#0 159315422#1 41389169#14 496332200#0 160321090 -71285598#5 -496249903#1 -496249903#0 81509012#1 228022808#2 228022808#3 -81509011#2"/>
    </vehicle>
    <vehicle id="1972" type="0" depart="63.95" departLane="free" departSpeed="max" fromTaz="9" toTaz="6">
        <route edges="499302825#0 496253677#1 496253677#5 496253677#10 496253677#14 496253677#18 496253677#19 228022815#2 41963902#6 41963902#7"/>
    </vehicle>
    <vehicle id="1024" type="0" depart="64.55" departLane="free" departSpeed="max" fromTaz="18" toTaz="13">
        <route edges="-160913587 -274022921#4 -274022921#3 -274022921#1 -496332197#5 -41389173#1 -496332200#4 -496332200#1 -41389169#14 159315422#5 159315446#1 -307096544#1 -496339496#3 24452776 72871329#0 72871329#1 72871329#2 72871334#0 72871334#1"/>
    </vehicle>
    <vehicle id="1432" type="0" depart="64.83" departLane="free" departSpeed="max" fromTaz="5" toTaz="15">
        <route edges="-496339476#3 -496253680#6 -496253680#3 -496253680#2 -27067577#6 -286094870#6 -286094870#2 -286094874#4 -160253722#7 159315422#0 -31794904#2"/>
    </vehicle>
    <vehicle id="1252" type="0" depart="65.02" departLane="free" departSpeed="max" fromTaz="3" toTaz="13">
        <route edges="-41389166#7 -545315834#2 -545315834#1 259871045#4 496493919#0 496493919#2 286847273#0 319713269#2 319713269#3 319713269#4 319713269#5 72871326#0 259871042#0 297757244#0 297757244#1 228022791 24452776 72871329#0 72871329#1 72871329#2 72871334#0 72871334#1"/>
    </vehicle>
    <vehicle id="1440" type="0" depart="65.67" departLane="free" departSpeed="max" fromTaz="5" toTaz="17">
        <route edges="-496339475#2 -286847301#1 286847307#0 -161010065#9 -24452783#5 -286847289#0 -286094877 -286094874#4 -160253722#7 -160253722#3"/>
    </vehicle>
    <vehicle id="1358" type="0" depart="66.54" departLane="free" departSpeed="max" fromTaz="5" toTaz="10">
        <route edges="-496339475#2 -286847301#1 286847309#0 -496253680#3 -496253680#2 -27067577#6 -27067577#2 gneE28 274022921#5 -227913938#10 -227913938#6"/>
    </vehicle>
    <vehicle id="448" type="0" depart="67.02" departLane="free" departSpeed="max" fromTaz="14" toTaz="11">
        <route edges="279365144#1 228022809#0 228022809#4 228022809#5 228022809#7 228022809#8 228022809#9 297757252#0 -496257360#5 -496257360#3 306997515#4"/>
    </vehicle>
    <vehicle id="238" type="0" depart="67.31" departLane="free" departSpeed="max" fromTaz="12" toTaz="15">
        <route edges="-gneE5 496257360#4 496257361 315886538#0 gneE22 -562025614#0 561994814#0 561994814#1 -306997494 -297896463#3 -297896463#2 -297896463#1 -307097146 -259871063#1 -496332199#1 -496332200#7 -496332200#4 -496332200#1 -41389169#14 -41389169#13"/>
    </vehicle>
    <vehicle id="1431" type="0" depart="67.58" departLane="free" departSpeed="max" fromTaz="5" toTaz="15">
        <route edges="-41963902#10 -41963902#6 228022815#4 203481580#2 -521131211 -496253680#2 -24452782#3 286094881#0 -306997498#3 -159279412 -41389183#2 -496332200#7 -496332200#4 -496332200#1 -41389169#14 -41389169#13"/>
    </vehicle>
    <vehicle id="889" type="0" depart="69.45" departLane="free" departSpeed="max" fromTaz="16" toTaz="8">
        <route edges="31794904#1 -159315422#0 160253722#4 286094874#0 286094877 286847289#0 24452783#0 496253679#0 gneE27 521131212#0 41963902#0 286847309#8 286847309#10"/>
    </vehicle>
    <vehicle id="1610" type="0" depart="70.10" departLane="free" departSpeed="max" fromTaz="7" toTaz="15">
        <route edges="-521131212#2 -496253677#18 -496253677#17 -286094870#14 -286094870#10 -286094870#6 -286094870#2 -306997497#2 -24430153#1 319713269#3 319713269#4 319713269#5 72871326#0 259871042#0 297757244#0 297757244#1"/>
    </vehicle>
    <vehicle id="188" type="0" depart="73.06" departLane="free" departSpeed="max" fromTaz="12" toTaz="10">
        <route edges="-gneE5 496257360#4 496257361 315886538#0 142297097#0 315886540#0 259871068#0 107538207#0 107538207#2 496253685 365719024#0 319713269#10 319713269#2 24430153#0 306997497#0 286094870#0 286094870#3 -27067577#2 24452786#0 24452786#3 -496253677#9 -496253677#2 -499302825#3"/>
    </vehicle>
    <vehicle id="169" type="0" depart="74.26" departLane="free" departSpeed="max" fromTaz="12" toTaz="10">
        <route edges="162442431#0 162442431#4 -315886536#3 497943357#0 -303889712#0 259871068#0 107538207#0 107538207#2 496253685 365719024#0 319713269#10 319713269#2 24430153#0 306997497#0 286094870#0 286094870#3 -27067577#2 24452786#0 24452786#3 -496253677#9 -496253677#2 -499302825#3"/>
    </vehicle>
    <vehicle id="597" type="0" depart="74.89" departLane="free" departSpeed="max" fromTaz="14" toTaz="6">
        <route edges="-228022792#1 72871344 72871329#2 72871329#3 72871329#4 72871329#5 436251058 159315419 496249898#1 297757243#0 259871043#0 319713269#7 319713269#8 319713269#10 107538204#0 -24452804 -286094881#1 286094878#0 496253680#0 gneE27 -203481580#3 286847309#4 41963902#6 496339477#6 496253677#22"/>
    </vehicle>
    <vehicle id="493" type="0" depart="77.02" departLane="free" departSpeed="max" fromTaz="14" toTaz="15">
        <route edges="-72871334#3 -72871334#0 72871329#3 72871329#4 72871329#5 72871331 158895303#0 307096544#0 -159315446#2 -159315422#5 -159315422#4 -31794904#2"/>
    </vehicle>
    <vehicle id="1385" type="0" depart="77.07" departLane="free" departSpeed="max" fromTaz="5" toTaz="11">
        <route edges="-496339475#2 -546374573#5 -546374573#4 -496332204#1 -496332204#0 -545315834#2 -545315834#1 -161036803#3 -161036803#0 279369086#1 -159244459#2 -159244459#1 303889712#2 306997512#10 306997515#0 306997515#4"/>
    </vehicle>
    <vehicle id="1532" type="0" depart="77.53" departLane="free" departSpeed="max" fromTaz="7" toTaz="11">
        <route edges="-24452782#8 -24452782#6 -24452782#5 -24452782#3 286094881#0 24452804 -521058769#1 250710098#0 250710098#1 250710098#2 496493902 259871069#0 315886537#0 228022818#0 315886539#0 -496257360#5 gneE5"/>
    </vehicle>
    <vehicle id="50" type="0" depart="77.87" departLane="free" departSpeed="max" fromTaz="1" toTaz="13">
        <route edges="158895309#2 306997492#0 306997492#2 107538207#0 107538207#2 496253685 365719024#0 319713269#10 319713269#2 319713269#3 319713269#4 319713269#5 72871326#0 259871042#0 297757244#0 297757244#1 228022791 24452776 72871329#0 286847288#0 228022792#0"/>
    </vehicle>
    <vehicle id="555" type="0" depart="79.38" departLane="free" departSpeed="max" fromTaz="14" toTaz="2">
        <route edges="81509011#0 228022808#4 228022808#6 228022809#0 228022809#4 228022809#5 228022809#7 228022809#8 228022809#9 297757252#0 496257361 315886538#0 gneE23 315886536#1 306997496#0"/>
    </vehicle>
    <vehicle id="515" type="0" depart="79.63" departLane="free" departSpeed="max" fromTaz="14" toTaz="17">
        <route edges="81509011#0 306974310#2 306974310#3 -81509012#2 496249903#0 496249903#1 71285598#5 -160321090 496332200#2 41389173#0 496332197#0 274022921#0 274022921#2 274022921#4 160913587"/>
    </vehicle>
    <vehicle id="490" type="0" depart="84.47" departLane="free" departSpeed="max" fromTaz="14" toTaz="15">
        <route edges="-228022792#1 72871344 72871329#2 72871329#3 72871329#4 72871329#5 72871331 158895303#0 307096544#0 -159315446#2 -159315422#5 -41389169#13"/>
    </vehicle>
    <vehicle id="1904" type="0" depart="84.64" departLane="free" departSpeed="max" fromTaz="9" toTaz="2">
        <route edges="499302825#0 496253677#1 496253677#5 -24452786#6 -24452786#2 27067577#0 27067577#3 -24452782#3 286094881#0 24452804 -521058769#1 250710098#0 250710098#1 250710098#2 279369086#0 279369086#1 279369086#2 306997493#0"/>
    </vehicle>
    <vehicle id="184" type="0" depart="85.08" departLane="free" departSpeed="max" fromTaz="12" toTaz="10">
        <route edges="297757252#0 496257361 315886538#0 142297097#0 315886540#0 259871068#0 107538207#0 107538207#2 496253685 365719024#0 319713269#10 319713269#2 319713269#3 279032146#0 279032146#3 496332201#0 274022921#0 274022921#2 274022921#4 274022921#5 -227913938#10 -227913938#6"/>
    </vehicle>
    <vehicle id="965" type="0" depart="85.14" departLane="free" departSpeed="max" fromTaz="18" toTaz="11">
        <route edges="160253722#1 159315422#0 31794904#3 496332196#0 496332196#1 496332199#0 259871063#0 307097146 297896463#0 297896463#2 297896463#3 306997494 -561994814#3 -561994814#0 562025614#0 gneE21 228022818#0 315886539#0 -496257360#5 -496257360#3 306997515#4"/>
    </vehicle>
    <vehicle id="614" type="0" depart="85.90" departLane="free" departSpeed="max" fromTaz="14" toTaz="6">
        <route edges="81509011#0 228022808#4 228022808#6 286841509#0 286841509#3 -307097146 -31794905#4 319713269#8 319713269#10 107538204#0 -24452804 -286094881#1 286094878#0 496253680#0 gneE27 -203481580#3 286847309#4 41963902#6 496339477#6 496253677#22"/>
    </vehicle>
    <vehicle id="815" type="0" depart="89.68" departLane="free" departSpeed="max" fromTaz="16" toTaz="2">
        <route edges="-71285598#7 -71285598#6 -71285598#5 -71285598#4 259871043#0 319713269#7 319713269#8 107538158#0 250710098#0 250710098#1 250710098#2 279369086#0 279369086#1 279369086#2 306997513#1 -158782352#5"/>
    </vehicle>
    <vehicle id="88" type="0" depart="92.36" departLane="free" departSpeed="max" fromTaz="1" toTaz="15">
        <route edges="158782352#4 306997513#5 259871045#1 259871045#4 496493919#0 496493919#2 286847273#0 319713269#2 319713269#3 319713269#4 -496332198#4 -496332200#7 -496332200#4 -496332200#1 -41389169#14 -41389169#13"/>
    </vehicle>
    <vehicle id="1144" type="0" depart="92.54" departLane="free" departSpeed="max" fromTaz="18" toTaz="6">
        <route edges="-160913587 gneE29 27067577#0 27067577#3 496253680#0 496253680#3 496253680#5 496339476#0"/>