<?xml version="1.0" encoding="UTF-8"?>

<!-- generated on 2023-04-28 11:13:56 by Eclipse SUMO duarouter Version 1.14.0
<configuration xmlns:xsi="http://www.w3.org/2001/XMLSchema-instance" xsi:noNamespaceSchemaLocation="http://sumo.dlr.de/xsd/duarouterConfiguration.xsd">

    <input>
        <net-file value="Tainan.net.xml"/>
        <additional-files value="vtype.xml"/>
        <route-files value="od_file.odtrips.xml"/>
    </input>

    <output>
        <output-file value="rou3/od_route_file.odtrips40.rou.xml"/>
    </output>

</configuration>
-->

<routes xmlns:xsi="http://www.w3.org/2001/XMLSchema-instance" xsi:noNamespaceSchemaLocation="http://sumo.dlr.de/xsd/routes_file.xsd">
    <vType id="0" speedFactor="normc(0.95,0.10,0.60,1.50)"/>
    <vehicle id="1091" type="0" depart="0.52" departLane="free" departSpeed="max" fromTaz="18" toTaz="4">
        <route edges="160253722#1 160253722#4 286094874#0 286094877 286847289#0 286847289#1 107538164#0 -496332204#0 41389166#5"/>
    </vehicle>
    <vehicle id="240" type="0" depart="1.50" departLane="free" departSpeed="max" fromTaz="12" toTaz="15">
        <route edges="158995079#0 -306997494 -297896463#3 -297896463#2 -297896463#1 -297757247#3 -297757247#2 -152086640#6 -152086640#4 -152086640#0"/>
    </vehicle>
    <vehicle id="1856" type="0" depart="1.56" departLane="free" departSpeed="max" fromTaz="9" toTaz="15">
        <route edges="499302825#0 -496253677#0 -24452779#1 227913938#7 304476025#0 304476025#4 304476025#7 304476025#12 160253726 41389178 107538178#0 31794904#0 31794904#1 159315422#1 159315422#5 159315422#6 71285598#7"/>
    </vehicle>
    <vehicle id="1662" type="0" depart="2.54" departLane="free" departSpeed="max" fromTaz="7" toTaz="2">
        <route edges="-24452782#8 -24452782#6 -24452782#5 -24452782#3 286094881#0 24452804 -521058769#1 250710098#0 250710098#1 250710098#2 496493902 303889712#0 303889712#1 303889712#2 306997512#10 306997496#0"/>
    </vehicle>
    <vehicle id="740" type="0" depart="2.91" departLane="free" departSpeed="max" fromTaz="16" toTaz="13">
        <route edges="159315419 81509012#1 306974310#4 228022810 72871329#5 72871329#6 72871329#0 72871329#1 72871329#2 72871334#0 72871334#1"/>
    </vehicle>
    <vehicle id="1213" type="0" depart="4.35" departLane="free" departSpeed="max" fromTaz="3" toTaz="10">
        <route edges="-161010072#5 -161010072#2 108037210#4 286847309#0 -496253680#3 -496253680#2 24452782#4 -504514704#6 -504514704#4 24452786#3 24452786#7"/>
    </vehicle>
    <vehicle id="686" type="0" depart="6.15" departLane="free" departSpeed="max" fromTaz="16" toTaz="10">
        <route edges="-71285598#7 -159315422#7 -159315422#5 -159315422#4 -31794904#2 -31794904#0 107538178#1 286852568 -304476025#12 -304476025#11 -304476025#6 -304476025#3 -227913938#10 24452779#0 496253677#0 496253677#1 27067557#0"/>
    </vehicle>
    <vehicle id="1355" type="0" depart="7.25" departLane="free" departSpeed="max" fromTaz="5" toTaz="10">
        <route edges="-496253677#23 -496253677#21 -496253677#19 -496253677#18 -496253677#17 -496253677#13 -496253677#9 -496253677#2 -496253677#0 -24452779#1 -227913938#6"/>
    </vehicle>
    <vehicle id="273" type="0" depart="7.58" departLane="free" departSpeed="max" fromTaz="12" toTaz="2">
        <route edges="297757252#0 496257361 315886538#0 gneE23 315886536#1 306997496#0"/>
    </vehicle>
    <vehicle id="1275" type="0" depart="7.95" departLane="free" departSpeed="max" fromTaz="3" toTaz="15">
        <route edges="302240826#4 -496332204#0 -545315834#2 -545315834#1 259871045#4 496493919#0 496493919#2 286847273#0 319713269#2 319713269#3 319713269#4 319713269#5 72871326#0 259871042#0 297757244#0 297757244#1"/>
    </vehicle>
    <vehicle id="233" type="0" depart="8.05" departLane="free" departSpeed="max" fromTaz="12" toTaz="15">
        <route edges="158995079#0 -306997494 -297896463#3 -297896463#2 -297896463#1 -297757247#3 -297757247#2 -152086640#6 496249903#1 71285598#5 71285598#6 71285598#7"/>
    </vehicle>
    <vehicle id="1478" type="0" depart="8.60" departLane="free" departSpeed="max" fromTaz="5" toTaz="6">
        <route edges="-496253677#23 -496339477#7 -496339477#5 -496339477#2 -297757248#1 496339475#0"/>
    </vehicle>
    <vehicle id="1571" type="0" depart="9.19" departLane="free" departSpeed="max" fromTaz="7" toTaz="13">
        <route edges="-521131212#2 -496253677#18 -496253677#17 -286094870#14 -286094870#10 -286094870#6 -286094870#2 -306997497#2 -24430153#1 319713269#3 319713269#4 319713269#5 72871326#0 259871042#0 297757244#0 297757244#1 228022791 24452776 72871329#0 286847288#0 228022792#0"/>
    </vehicle>
    <vehicle id="793" type="0" depart="9.22" departLane="free" departSpeed="max" fromTaz="16" toTaz="2">
        <route edges="31794904#1 31794904#3 496332196#0 496332196#1 496332199#0 259871063#0 307097147#0 307097147#3 536826453 496253687#1 303889712#0 303889712#1 303889712#2 303889712#5"/>
    </vehicle>
    <vehicle id="696" type="0" depart="11.68" departLane="free" departSpeed="max" fromTaz="16" toTaz="10">
        <route edges="152086640#0 -159315422#10 -159315422#7 -159315422#5 -159315422#4 -31794904#2 -31794904#0 107538178#1 286852568 -304476025#12 -304476025#11 -304476025#6 -304476025#3 -227913938#10 24452779#0 496253677#0 496253677#1 27067557#0"/>
    </vehicle>
    <vehicle id="1676" type="0" depart="11.88" departLane="free" departSpeed="max" fromTaz="7" toTaz="2">
        <route edges="-286094870#18 -286094870#14 504514704#5 -24452782#5 -24452782#3 286094881#0 24452804 -521058769#1 250710098#0 250710098#1 250710098#2 496493902 303889712#0 303889712#1 303889712#2 303889712#5"/>
    </vehicle>
    <vehicle id="36" type="0" depart="11.92" departLane="free" departSpeed="max" fromTaz="1" toTaz="11">
        <route edges="-571719005#1 306997514#13 306997492#0 -497943357#6 -497943357#4 -497943357#2 -161036801#9 gneE5"/>
    </vehicle>
    <vehicle id="1280" type="0" depart="12.54" departLane="free" departSpeed="max" fromTaz="3" toTaz="15">
        <route edges="302240826#4 -496332204#0 -545315834#2 -545315834#1 259871045#4 496493919#0 496493919#2 286847273#0 319713269#2 319713269#3 319713269#4 319713269#5 72871326#0 259871042#0 297757244#0 297757244#1"/>
    </vehicle>
    <vehicle id="1895" type="0" depart="14.37" departLane="free" departSpeed="max" fromTaz="9" toTaz="17">
        <route edges="-24452786#9 -24452786#6 -24452786#2 gneE28 160913587"/>
    </vehicle>
    <vehicle id="265" type="0" depart="14.64" departLane="free" departSpeed="max" fromTaz="12" toTaz="17">
        <route edges="158995079#0 -306997494 111343195#0 111343195#3 365719024#0 319713269#10 319713269#2 319713269#3 279032146#0 279032146#3 496332201#0 274022921#0 274022921#2 274022921#4 160913587"/>
    </vehicle>
    <vehicle id="687" type="0" depart="14.78" departLane="free" departSpeed="max" fromTaz="16" toTaz="10">
        <route edges="31794904#1 -159315422#0 -160253722#3 -160253722#0 286852568 -304476025#12 -304476025#11 -304476025#6 -304476025#3 -227913938#10 24452779#0 -496253674#1"/>
    </vehicle>
    <vehicle id="1572" type="0" depart="15.42" departLane="free" departSpeed="max" fromTaz="7" toTaz="13">
        <route edges="-521131212#2 -496253677#18 -24452782#6 -24452782#5 -24452782#3 286094881#0 24452804 -521058769#1 -111343195#5 -111343195#2 -297896463#3 -297896463#2 -297896463#1 -286841509#4 -286841509#2 306974310#0 306974310#1 -81509011#2"/>
    </vehicle>
    <vehicle id="164" type="0" depart="15.65" departLane="free" departSpeed="max" fromTaz="12" toTaz="10">
        <route edges="158995079#0 -306997494 111343195#0 111343195#3 365719024#0 319713269#10 319713269#2 319713269#3 279032146#0 279032146#3 496332201#0 274022921#0 274022921#2 274022921#4 274022921#5 -227913938#10 -227913938#6"/>
    </vehicle>
    <vehicle id="1770" type="0" depart="15.80" departLane="free" departSpeed="max" fromTaz="9" toTaz="10">
        <route edges="159307912 -496253677#2 -499302825#3"/>
    </vehicle>
    <vehicle id="392" type="0" depart="16.96" departLane="free" departSpeed="max" fromTaz="12" toTaz="8">
        <route edges="297757252#0 496257361 315886538#0 142297097#0 315886540#0 259871068#0 298812493#0 298812493#1 496493914 38367679#0 38367679#2 108037210#0 108037210#1 108037210#4 286847309#0 286847309#2 286847309#4 286847309#8 286847309#10"/>
    </vehicle>
    <vehicle id="1409" type="0" depart="20.34" departLane="free" departSpeed="max" fromTaz="5" toTaz="13">
        <route edges="-496253677#23 -496339477#7 -41963902#6 228022815#4 203481580#2 -521131211 -496253680#2 -24452782#3 286094881#0 24452804 -521058769#1 -111343195#5 -111343195#2 -297896463#3 -297896463#2 -297896463#1 -286841509#4 -286841509#2 306974310#0 306974310#1 -81509011#2"/>
    </vehicle>
    <vehicle id="133" type="0" depart="20.80" departLane="free" departSpeed="max" fromTaz="1" toTaz="8">
        <route edges="-306997496#1 306997514#0 -303889712#3 -303889712#1 -303889712#0 259871068#0 107538207#0 107538207#2 496253684#0 496253684#5 496253682#0 -286847289#0 286094878#0 24452782#4 24452782#6 24452782#7"/>
    </vehicle>
    <vehicle id="1328" type="0" depart="21.88" departLane="free" departSpeed="max" fromTaz="3" toTaz="8">
        <route edges="-496332203#2 546374573#0 -161010072#2 108037210#4 286847309#0 286847309#2 286847309#4 286847309#8 286847309#10"/>
    </vehicle>
    <vehicle id="849" type="0" depart="22.98" departLane="free" departSpeed="max" fromTaz="16" toTaz="4">
        <route edges="159315419 496249898#1 297757243#0 259871043#0 319713269#7 319713269#8 319713269#10 107538204#0 250710092#0 496253684#5 -552358549#4 38367679#0 41389166#0 41389166#5"/>
    </vehicle>
    <vehicle id="698" type="0" depart="23.85" departLane="free" departSpeed="max" fromTaz="16" toTaz="11">
        <route edges="-71285598#7 -71285598#6 -71285598#5 -496249903#1 152086640#5 297757247#0 297757247#3 297896463#0 297896463#2 297896463#3 306997494 -561994814#3 -561994814#0 562025614#0 gneE21 228022818#0 315886539#0 -496257360#5 -496257360#3 306997515#4"/>
    </vehicle>
    <vehicle id="157" type="0" depart="24.40" departLane="free" departSpeed="max" fromTaz="12" toTaz="10">
        <route edges="297757252#0 496257361 315886538#0 142297097#0 315886540#0 259871068#0 107538207#0 107538207#2 496253685 365719024#0 319713269#10 319713269#2 319713269#3 279032146#0 279032146#3 496332201#0 274022921#0 274022921#2 274022921#4 274022921#5 -227913938#10 24452779#0 -496253674#1"/>
    </vehicle>
    <vehicle id="1493" type="0" depart="24.85" departLane="free" departSpeed="max" fromTaz="5" toTaz="8">
        <route edges="-496253677#23 -496253677#21 -496253677#19 521131212#2"/>
    </vehicle>
    <vehicle id="1089" type="0" depart="25.30" departLane="free" departSpeed="max" fromTaz="18" toTaz="2">
        <route edges="-160913587 -274022921#4 -274022921#3 -274022921#1 -496332201#4 -279032146#4 -279032146#2 319713269#4 319713269#5 319713269#7 319713269#8 107538158#0 250710098#0 250710098#1 250710098#2 279369086#0 279369086#1 279369086#2 306997493#0"/>
    </vehicle>
    <vehicle id="1332" type="0" depart="26.19" departLane="free" departSpeed="max" fromTaz="3" toTaz="8">
        <route edges="-41389166#7 496332204#0 496332204#1 -158854903#1 108037210#1 108037210#4 286847309#0 286847309#2 286847309#4 286847309#8 286847309#10"/>
    </vehicle>
    <vehicle id="1927" type="0" depart="27.10" departLane="free" departSpeed="max" fromTaz="9" toTaz="2">
        <route edges="159307912 496253677#5 -24452786#6 -24452786#2 27067577#0 27067577#3 -24452782#3 286094881#0 24452804 -521058769#1 250710098#0 250710098#1 250710098#2 496493902 303889712#0 303889712#1 303889712#2 306997514#7 306997514#10 571719005#0"/>
    </vehicle>
    <vehicle id="1595" type="0" depart="27.15" departLane="free" departSpeed="max" fromTaz="7" toTaz="13">
        <route edges="-286094870#18 -286094870#14 -286094870#10 -286094870#6 -286094870#2 -306997497#2 -24430153#1 319713269#3 319713269#4 319713269#5 72871326#0 259871042#0 297757244#0 297757244#1 228022791 24452776 72871329#0 72871329#1 72871329#2 72871334#0 72871334#1"/>
    </vehicle>
    <vehicle id="584" type="0" depart="27.55" departLane="free" departSpeed="max" fromTaz="14" toTaz="4">
        <route edges="81509011#0 228022808#4 228022808#6 286841509#0 286841509#3 -307097146 -31794905#4 319713269#8 319713269#10 107538204#0 250710092#0 496253684#5 -552358549#4 38367679#0 41389166#0 41389166#5"/>
    </vehicle>
    <vehicle id="683" type="0" depart="30.71" departLane="free" departSpeed="max" fromTaz="16" toTaz="10">
        <route edges="31794904#1 -159315422#0 160253722#4 274022921#0 274022921#2 274022921#4 gneE29 24452786#0 24452786#3 24452786#7"/>
    </vehicle>
    <vehicle id="1990" type="0" depart="31.77" departLane="free" departSpeed="max" fromTaz="9" toTaz="6">
        <route edges="159307912 496253677#5 -24452786#6 -24452786#2 27067577#0 27067577#3 496253680#0 496253680#3 228022815#6 286847301#0 496339475#0"/>
    </vehicle>
    <vehicle id="1070" type="0" depart="34.26" departLane="free" departSpeed="max" fromTaz="18" toTaz="2">
        <route edges="160253722#1 159315422#0 31794904#3 496332196#0 496332196#1 496332199#0 259871063#0 307097147#0 307097147#3 536826453 496253687#1 303889712#0 303889712#1 303889712#2 303889712#5"/>
    </vehicle>
    <vehicle id="228" type="0" depart="35.17" departLane="free" departSpeed="max" fromTaz="12" toTaz="15">
        <route edges="162442431#0 496257360#1 496257360#4 496257361 315886538#0 gneE22 -562025614#0 561994814#0 561994814#1 -306997494 -297896463#3 -297896463#2 -297896463#1 -307097146 -259871063#1 -496332199#1 -496332200#7 -496332200#4 -496332200#1 -41389169#14 -41389169#13"/>
    </vehicle>
    <vehicle id="287" type="0" depart="36.96" departLane="free" departSpeed="max" fromTaz="12" toTaz="2">
        <route edges="297757252#0 496257361 315886538#0 gneE23 315886536#1 306997496#0"/>
    </vehicle>
    <vehicle id="1902" type="0" depart="39.74" departLane="free" departSpeed="max" fromTaz="9" toTaz="2">
        <route edges="496253674#0 -24452779#1 227913938#7 -274022921#6 -274022921#4 -274022921#3 -274022921#1 -496332201#4 -279032146#4 -279032146#2 319713269#4 319713269#5 319713269#7 319713269#8 107538158#0 250710098#0 250710098#1 250710098#2 279369086#0 279369086#1 279369086#2 306997493#0"/>
    </vehicle>
    <vehicle id="1321" type="0" depart="40.89" departLane="free" departSpeed="max" fromTaz="3" toTaz="6">
        <route edges="-41389166#7 496332204#0 496332204#1 546374573#0 546374573#5 496339475#0"/>
    </vehicle>
    <vehicle id="726" type="0" depart="41.73" departLane="free" departSpeed="max" fromTaz="16" toTaz="11">
        <route edges="-71285598#7 -71285598#6 -71285598#5 -496249903#1 152086640#5 297757247#0 297757247#3 297896463#0 297896463#2 -158783758#8 -158783758#6"/>
    </vehicle>
    <vehicle id="1393" type="0" depart="42.11" departLane="free" departSpeed="max" fromTaz="5" toTaz="11">
        <route edges="-41963902#10 -496339477#5 -496339477#2 -297757248#1 -546374573#5 -546374573#4 -496332204#1 -496332204#0 -545315834#2 -545315834#1 -161036803#3 -161036803#0 -497943357#6 -497943357#4 -497943357#2 -161036801#9 gneE5"/>
    </vehicle>
    <vehicle id="567" type="0" depart="44.98" departLane="free" departSpeed="max" fromTaz="14" toTaz="4">
        <route edges="-228022792#1 72871344 72871329#2 72871329#3 72871329#4 72871329#5 436251058 159315419 496249898#1 297757243#0 259871043#0 319713269#7 319713269#8 319713269#10 107538204#0 250710092#0 496253684#5 -552358549#4 38367679#0 38367679#2 108037210#0 158854903#0 496332203#0"/>
    </vehicle>
    <vehicle id="1353" type="0" depart="45.64" departLane="free" departSpeed="max" fromTaz="5" toTaz="10">
        <route edges="-41963902#10 -41963902#6 286847309#8 -496253677#19 -496253677#18 -496253677#17 -496253677#13 -496253677#9 -496253677#2 -496253677#0 -24452779#1 -227913938#6"/>
    </vehicle>
    <vehicle id="418" type="0" depart="45.79" departLane="free" departSpeed="max" fromTaz="14" toTaz="10">
        <route edges="-228022792#1 72871344 72871329#2 72871329#3 72871329#4 72871329#5 72871331 158895303#0 307096544#0 307096544#2 307096544#4 160253727 107538178#0 107538178#1 286852568 -304476025#12 -304476025#11 -304476025#6 -304476025#3 -227913938#10 24452779#0 496253677#0 -499302825#3"/>
    </vehicle>
    <vehicle id="1415" type="0" depart="46.35" departLane="free" departSpeed="max" fromTaz="5" toTaz="13">
        <route edges="-496339476#3 -496253680#6 -496253680#3 -496253680#2 -24452782#3 286094881#0 24452804 -521058769#1 -111343195#5 -111343195#2 -297896463#3 -297896463#2 -297896463#1 -286841509#4 -286841509#2 -279365144#3"/>
    </vehicle>
    <vehicle id="1097" type="0" depart="48.47" departLane="free" departSpeed="max" fromTaz="18" toTaz="4">
        <route edges="-160913587 -274022921#4 -274022921#3 -274022921#1 286094874#0 286094877 286847289#0 286847289#1 107538164#0 496332204#1 496332203#0"/>
    </vehicle>
    <vehicle id="1866" type="0" depart="48.87" departLane="free" departSpeed="max" fromTaz="9" toTaz="15">
        <route edges="227913938#0 227913938#7 304476025#0 304476025#4 304476025#7 304476025#12 160253726 41389178 -160253727 -307096544#5 -307096544#3 -71285598#7 159315422#8 -152086640#0"/>
    </vehicle>
    <vehicle id="945" type="0" depart="51.62" departLane="free" departSpeed="max" fromTaz="18" toTaz="10">
        <route edges="-160913587 274022921#5 -227913938#10 24452779#0 496253677#0 496253677#1 27067557#0"/>
    </vehicle>
    <vehicle id="1254" type="0" depart="51.63" departLane="free" departSpeed="max" fromTaz="3" toTaz="13">
        <route edges="-41389166#7 -545315834#2 -545315834#1 259871045#4 496493919#0 496493919#2 286847273#0 319713269#2 319713269#3 319713269#4 319713269#5 72871326#0 259871042#0 297757244#0 81509012#1 556031052#1"/>
    </vehicle>
    <vehicle id="842" type="0" depart="52.09" departLane="free" departSpeed="max" fromTaz="16" toTaz="4">
        <route edges="-71285598#7 -159315422#7 -159315446#0 496332200#0 496332200#2 496332200#5 41389183#0 159279412 306997498#0 -286361759#1 -552358549#4 38367679#0 41389166#0 496332204#0 -302240826#6"/>
    </vehicle>
    <vehicle id="1605" type="0" depart="52.72" departLane="free" departSpeed="max" fromTaz="7" toTaz="15">
        <route edges="-521131212#2 -496253677#18 -496253677#17 -286094870#14 -286094870#10 -286094870#6 -286094870#2 -306997497#2 -24430153#1 319713269#3 319713269#4 319713269#5 72871326#0 259871042#0 297757244#0 297757244#1"/>
    </vehicle>
    <vehicle id="1113" type="0" depart="54.54" departLane="free" departSpeed="max" fromTaz="18" toTaz="4">
        <route edges="-160913587 -274022921#4 -274022921#3 -274022921#1 286094874#0 286094877 286847289#0 286847289#1 107538164#0 -496332204#0 41389166#5"/>
    </vehicle>
    <vehicle id="1848" type="0" depart="54.62" departLane="free" departSpeed="max" fromTaz="9" toTaz="15">
        <route edges="227913938#0 227913938#7 304476025#0 304476025#4 304476025#7 304476025#12 160253726 41389178 107538178#0 31794904#0 31794904#1 159315422#1 159315422#5 159315422#6 71285598#7"/>
    </vehicle>
    <vehicle id="505" type="0" depart="54.88" departLane="free" departSpeed="max" fromTaz="14" toTaz="17">
        <route edges="-72871334#3 -72871334#0 72871329#3 72871329#4 72871329#5 72871331 158895303#0 307096544#0 -159315446#2 -159315422#5 -159315422#4 -159315422#0 -160253722#3"/>
    </vehicle>
    <vehicle id="1285" type="0" depart="55.46" departLane="free" departSpeed="max" fromTaz="3" toTaz="15">
        <route edges="302240826#4 -496332204#0 -545315834#2 -545315834#1 259871045#4 496493919#0 496493919#2 286847273#0 319713269#2 319713269#3 319713269#4 319713269#5 72871326#0 259871042#0 -152086640#6 -152086640#4 -152086640#0"/>
    </vehicle>
    <vehicle id="599" type="0" depart="56.20" departLane="free" departSpeed="max" fromTaz="14" toTaz="6">
        <route edges="-72871334#3 -72871334#0 72871329#3 72871329#4 72871329#5 436251058 159315419 496249898#1 297757243#0 259871043#0 319713269#7 319713269#8 319713269#10 107538204#0 -24452804 -286094881#1 286094878#0 496253680#0 496253680#3 496253680#5 496339476#0"/>
    </vehicle>
    <vehicle id="1256" type="0" depart="57.08" departLane="free" departSpeed="max" fromTaz="3" toTaz="13">
        <route edges="302240826#4 -496332204#0 -545315834#2 -545315834#1 259871045#4 496493919#0 496493919#2 286847273#0 319713269#2 319713269#3 319713269#4 319713269#5 72871326#0 259871042#0 297757244#0 297757244#1 228022791 24452776 72871329#0 72871329#1 72871329#2 72871334#0 72871334#1"/>
    </vehicle>
    <vehicle id="1666" type="0" depart="58.70" departLane="free" departSpeed="max" fromTaz="7" toTaz="2">
        <route edges="-286094870#18 -286094870#14 504514704#5 -24452782#5 -24452782#3 286094881#0 24452804 -521058769#1 250710098#0 250710098#1 250710098#2 496493902 303889712#0 303889712#1 303889712#2 303889712#5"/>
    </vehicle>
    <vehicle id="611" type="0" depart="59.02" departLane="free" departSpeed="max" fromTaz="14" toTaz="6">
        <route edges="279365144#1 286841509#0 286841509#3 -307097146 -31794905#4 319713269#8 319713269#10 107538204#0 -24452804 -286094881#1 286094878#0 496253680#0 gneE27 -203481580#3 286847309#4 41963902#6 496339477#6 496253677#22"/>
    </vehicle>
    <vehicle id="1391" type="0" depart="61.99" departLane="free" departSpeed="max" fromTaz="5" toTaz="11">
        <route edges="-41963902#10 -41963902#6 228022815#4 203481580#2 -521131211 -496253680#2 -24452782#3 286094881#0 24452804 -521058769#1 -111343195#5 -111343195#2 -496493905#3 81357763#0 -158783758#6"/>
    </vehicle>
    <vehicle id="289" type="0" depart="62.22" departLane="free" departSpeed="max" fromTaz="12" toTaz="2">
        <route edges="-gneE5 -496257360#3 162442431#4 306997514#0 303889712#5"/>
    </vehicle>
    <vehicle id="1143" type="0" depart="64.30" departLane="free" departSpeed="max" fromTaz="18" toTaz="6">
        <route edges="-160913587 gneE29 24452786#0 24452786#3 496253677#10 496253677#14 496253677#18 496253677#19 496253677#21 496253677#22"/>
    </vehicle>
    <vehicle id="337" type="0" depart="65.30" departLane="free" departSpeed="max" fromTaz="12" toTaz="4">
        <route edges="158995079#0 -561994814#3 41389167#0 554648350#0 496253684#0 496253684#5 -552358549#4 38367679#0 41389166#0 496332204#0 -302240826#6"/>
    </vehicle>
    <vehicle id="1187" type="0" depart="67.56" departLane="free" departSpeed="max" fromTaz="18" toTaz="8">
        <route edges="160253722#1 160253722#4 274022921#0 274022921#2 274022921#4 gneE29 24452786#0 24452786#3 496253677#10 286094870#15"/>
    </vehicle>
    <vehicle id="1343" type="0" depart="71.80" departLane="free" departSpeed="max" fromTaz="3" toTaz="8">
        <route edges="-161010072#5 -161010072#2 108037210#4 286847309#0 286847309#2 203481580#2 521131212#0 521131212#1 -496253677#18 -496253677#17 286094870#15"/>
    </vehicle>
    <vehicle id="1432" type="0" depart="71.97" departLane="free" departSpeed="max" fromTaz="5" toTaz="15">
        <route edges="-496339475#2 -286847301#1 286847307#0 -161010065#9 -24452783#5 -286847289#0 286094881#0 24452804 286847273#0 319713269#2 319713269#3 319713269#4 319713269#5 72871326#0 259871042#0 -152086640#6 -152086640#4 -152086640#0"/>
    </vehicle>
    <vehicle id="1339" type="0" depart="72.25" departLane="free" departSpeed="max" fromTaz="3" toTaz="8">
        <route edges="302240826#4 302240826#7 108037210#0 108037210#1 108037210#4 286847309#0 286847309#2 286847309#4 286847309#8 286847309#10"/>
    </vehicle>
    <vehicle id="1874" type="0" depart="72.82" departLane="free" departSpeed="max" fromTaz="9" toTaz="17">
        <route edges="227913938#0 227913938#7 -274022921#6 160913587"/>
    </vehicle>
    <vehicle id="220" type="0" depart="73.01" departLane="free" departSpeed="max" fromTaz="12" toTaz="15">
        <route edges="158995079#0 -306997494 -297896463#3 -297896463#2 -297896463#1 -307097146 -259871063#1 -496332199#1 -496332200#7 -496332200#4 -496332200#1 -41389169#14 -41389169#13"/>
    </vehicle>
    <vehicle id="113" type="0" depart="73.38" departLane="free" departSpeed="max" fromTaz="1" toTaz="2">
        <route edges="-571719005#1 306997514#13 306997492#0 -497943357#6 -497943357#4 303889712#1 303889712#2 306997512#10 306997496#0"/>
    </vehicle>
    <vehicle id="1026" type="0" depart="73.45" departLane="free" departSpeed="max" fromTaz="18" toTaz="13">
        <route edges="160253722#1 159315422#0 159315422#1 41389169#14 496332200#0 160321090 -71285598#5 -496249903#1 -496249903#0 81509012#1 556031052#1"/>
    </vehicle>
    <vehicle id="269" type="0" depart="73.54" departLane="free" departSpeed="max" fromTaz="12" toTaz="17">
        <route edges="297757252#0 496257361 315886538#0 142297097#0 315886540#0 259871068#0 107538207#0 107538207#2 496253685 365719024#0 319713269#10 319713269#2 319713269#3 279032146#0 279032146#3 496332201#0 274022921#0 274022921#2 274022921#4 160913587"/>
    </vehicle>
    <vehicle id="1180" type="0" depart="73.63" departLane="free" departSpeed="max" fromTaz="18" toTaz="8">
        <route edges="160253722#1 160253722#4 286094874#0 286094877 286847289#0 24452783#0 496253679#0 gneE27 521131212#0 41963902#0 286847309#8 286847309#10"/>
    </vehicle>
    <vehicle id="1794" type="0" depart="74.72" departLane="free" departSpeed="max" fromTaz="9" toTaz="11">
        <route edges="227913938#0 227913938#7 -274022921#6 -274022921#4 -274022921#3 -274022921#1 -496332201#4 -279032146#4 -279032146#2 319713269#4 319713269#5 319713269#7 31794905#0 307097146 297896463#0 297896463#2 297896463#3 306997494 -561994814#3 -561994814#0 562025614#0 gneE21 228022818#0 315886539#0 -496257360#5 -496257360#3 306997515#4"/>
    </vehicle>
    <vehicle id="1272" type="0" depart="75.93" departLane="free" departSpeed="max" fromTaz="3" toTaz="15">
        <route edges="-161010072#5 -161010072#2 -161010065#9 -24452783#5 -286847289#0 286094881#0 -306997498#3 -159279412 -41389183#2 -496332200#7 -496332200#4 -496332200#1 -41389169#14 159315422#5 159315422#6 71285598#7"/>
    </vehicle>
    <vehicle id="1155" type="0" depart="76.55" departLane="free" departSpeed="max" fromTaz="18" toTaz="8">
        <route edges="-160913587 gneE29 24452786#0 24452786#3 496253677#10 496253677#14 496253677#18 521131212#2"/>
    </vehicle>
    <vehicle id="1096" type="0" depart="76.98" departLane="free" departSpeed="max" fromTaz="18" toTaz="4">
        <route edges="160253722#1 160253722#4 286094874#0 286094877 286847289#0 286847289#1 107538164#0 496332204#1 496332203#0"/>
    </vehicle>
    <vehicle id="386" type="0" depart="78.70" departLane="free" departSpeed="max" fromTaz="12" toTaz="8">
        <route edges="158995079#0 -306997494 111343195#0 111343195#3 365719024#0 319713269#10 319713269#2 24430153#0 306997497#0 286094870#0 286094870#3 286094870#7 286094870#11 286094870#15"/>
    </vehicle>
    <vehicle id="765" type="0" depart="79.09" departLane="free" departSpeed="max" fromTaz="16" toTaz="13">
        <route edges="-71285598#7 159315422#8 -152086640#0 -496339496#3 24452776 72871329#0 286847288#0 228022792#0"/>
    </vehicle>
    <vehicle id="1645" type="0" depart="79.72" departLane="free" departSpeed="max" fromTaz="7" toTaz="17">
        <route edges="228022815#0 -496253677#19 -496253677#18 -496253677#17 -496253677#13 -24452786#6 -24452786#2 gneE28 160913587"/>
    </vehicle>
    <vehicle id="917" type="0" depart="80.31" departLane="free" departSpeed="max" fromTaz="16" toTaz="8">
        <route edges="41389169#12 41389169#14 496332200#0 496332200#2 496332200#5 41389183#0 159279412 306997497#0 286094870#0 286094870#3 286094870#7 286094870#11 496253677#14 496253677#18 496253677#19 286847309#10"/>
    </vehicle>
    <vehicle id="508" type="0" depart="80.31" departLane="free" departSpeed="max" fromTaz="14" toTaz="17">
        <route edges="-228022792#1 72871344 72871329#2 72871329#3 72871329#4 72871329#5 72871331 158895303#0 307096544#0 -159315446#2 -159315422#5 -159315422#4 -159315422#0 -160253722#3"/>
    </vehicle>
    <vehicle id="1488" type="0" depart="80.45" departLane="free" departSpeed="max" fromTaz="5" toTaz="8">
        <route edges="-496339475#2 297757248#0 -496253680#6 286847309#2 286847309#4 286847309#8 -496253677#19 521131212#2"/>
    </vehicle>
    <vehicle id="267" type="0" depart="80.62" departLane="free" departSpeed="max" fromTaz="12" toTaz="17">
        <route edges="-gneE5 496257360#4 496257361 315886538#0 142297097#0 315886540#0 259871068#0 107538207#0 107538207#2 496253685 365719024#0 319713269#10 319713269#2 319713269#3 279032146#0 279032146#3 496332201#0 274022921#0 274022921#2 274022921#4 160913587"/>
    </vehicle>
    <vehicle id="616" type="0" depart="81.77" departLane="free" departSpeed="max" fromTaz="14" toTaz="6">
        <route edges="-228022792#1 72871344 72871329#2 72871329#3 72871329#4 72871329#5 436251058 159315419 496249898#1 297757243#0 259871043#0 319713269#7 319713269#8 319713269#10 107538204#0 -24452804 -286094881#1 286094878#0 496253680#0 gneE27 -203481580#3 286847309#4 41963902#6 41963902#7"/>
    </vehicle>
    <vehicle id="1751" type="0" depart="84.17" departLane="free" departSpeed="max" fromTaz="7" toTaz="8">
        <route edges="228022815#0 -496253677#19 521131212#2"/>
    </vehicle>
    <vehicle id="1160" type="0" depart="84.34" departLane="free" departSpeed="max" fromTaz="18" toTaz="8">
        <route edges="-160913587 gneE29 24452786#0 24452786#3 496253677#10 286094870#15"/>
    </vehicle>
    <vehicle id="357" type="0" depart="87.47" departLane="free" departSpeed="max" fromTaz="12" toTaz="6">
        <route edges="297757252#0 496257361 315886538#0 142297097#0 315886540#0 259871068#0 298812493#0 298812493#1 496493914 38367679#0 38367679#2 108037210#0 158854903#0 546374573#0 546374573#5 297757248#0 496339476#0"/>
    </vehicle>
    <vehicle id="1297" type="0" depart="88.43" departLane="free" departSpeed="max" fromTaz="3" toTaz="17">
        <route edges="302240826#4 302240826#7 -496253672 -286847289#0 -286094877 -286094874#4 -160253722#7 -160253722#3"/>