<?xml version="1.0" encoding="UTF-8"?>

<!-- generated on 2023-04-28 11:13:05 by Eclipse SUMO duarouter Version 1.14.0
<configuration xmlns:xsi="http://www.w3.org/2001/XMLSchema-instance" xsi:noNamespaceSchemaLocation="http://sumo.dlr.de/xsd/duarouterConfiguration.xsd">

    <input>
        <net-file value="Tainan.net.xml"/>
        <additional-files value="vtype.xml"/>
        <route-files value="od_file.odtrips.xml"/>
    </input>

    <output>
        <output-file value="rou3/od_route_file.odtrips10.rou.xml"/>
    </output>

</configuration>
-->

<routes xmlns:xsi="http://www.w3.org/2001/XMLSchema-instance" xsi:noNamespaceSchemaLocation="http://sumo.dlr.de/xsd/routes_file.xsd">
    <vType id="0" speedFactor="normc(0.95,0.10,0.60,1.50)"/>
    <vehicle id="1952" type="0" depart="0.85" departLane="free" departSpeed="max" fromTaz="9" toTaz="6">
        <route edges="499302825#0 496253677#1 496253677#5 496253677#10 496253677#14 496253677#18 496253677#19 496253677#21 496253677#22"/>
    </vehicle>
    <vehicle id="1375" type="0" depart="2.80" departLane="free" departSpeed="max" fromTaz="5" toTaz="11">
        <route edges="-41963902#10 -496339477#5 -496339477#2 -496253680#6 228022815#6 286847307#0 286847307#2 286847310#0 496493917#0 250710099#0 250710099#3 496493902 259871069#0 315886537#0 228022818#0 315886539#0 315886539#2"/>
    </vehicle>
    <vehicle id="1248" type="0" depart="3.17" departLane="free" departSpeed="max" fromTaz="3" toTaz="13">
        <route edges="302240826#4 -496332204#0 -545315834#2 -545315834#1 259871045#4 496493919#0 496493919#2 286847273#0 319713269#2 319713269#3 319713269#4 319713269#5 72871326#0 259871042#0 297757244#0 81509012#1 556031052#1"/>
    </vehicle>
    <vehicle id="850" type="0" depart="3.84" departLane="free" departSpeed="max" fromTaz="16" toTaz="6">
        <route edges="-71285598#7 -159315422#7 -159315446#0 496332200#0 496332200#2 496332200#5 41389183#0 159279412 306997498#0 -286094881#1 286094878#0 496253680#0 496253680#3 496253680#5 496339476#0"/>
    </vehicle>
    <vehicle id="1163" type="0" depart="3.97" departLane="free" departSpeed="max" fromTaz="18" toTaz="8">
        <route edges="-160913587 gneE29 24452786#0 24452786#3 496253677#10 496253677#14 496253677#18 521131212#2"/>
    </vehicle>
    <vehicle id="1019" type="0" depart="4.91" departLane="free" departSpeed="max" fromTaz="18" toTaz="13">
        <route edges="-160913587 -274022921#4 -274022921#3 -274022921#1 -496332197#5 -41389173#1 -496332200#4 160321090 -71285598#5 -496249903#1 -496249903#0 81509012#1 556031052#1"/>
    </vehicle>
    <vehicle id="1478" type="0" depart="5.89" departLane="free" departSpeed="max" fromTaz="5" toTaz="8">
        <route edges="-496339475#2 297757248#0 -496253680#6 286847309#2 286847309#4 286847309#8 286847309#10"/>
    </vehicle>
    <vehicle id="1029" type="0" depart="6.29" departLane="free" departSpeed="max" fromTaz="18" toTaz="13">
        <route edges="-160913587 -274022921#4 -274022921#3 -274022921#1 -496332197#5 -41389173#1 -496332200#4 -496332200#1 -41389169#14 159315422#5 159315446#1 -307096544#1 -496339496#3 24452776 72871329#0 286847288#0 228022792#0"/>
    </vehicle>
    <vehicle id="469" type="0" depart="8.13" departLane="free" departSpeed="max" fromTaz="14" toTaz="15">
        <route edges="-556031052#2 -81509012#2 297757244#1"/>
    </vehicle>
    <vehicle id="1497" type="0" depart="9.01" departLane="free" departSpeed="max" fromTaz="7" toTaz="10">
        <route edges="-521131212#2 -496253677#18 -496253677#17 -496253677#13 -496253677#9 -496253677#2 -499302825#3"/>
    </vehicle>
    <vehicle id="286" type="0" depart="9.96" departLane="free" departSpeed="max" fromTaz="12" toTaz="2">
        <route edges="158783758#2 -81357763#0 496493905#3 306997494 -561994814#3 -561994814#0 562025614#0 gneE21 gneE23 315886536#1 306997496#0"/>
    </vehicle>
    <vehicle id="1546" type="0" depart="10.68" departLane="free" departSpeed="max" fromTaz="7" toTaz="13">
        <route edges="228022815#0 228022815#2 -41963902#4 -521131212#0 203481580#4 -24452782#5 -24452782#3 286094881#0 24452804 -521058769#1 -111343195#5 -111343195#2 -297896463#3 -297896463#2 -297896463#1 -286841509#4 -286841509#2 -279365144#3"/>
    </vehicle>
    <vehicle id="1606" type="0" depart="10.88" departLane="free" departSpeed="max" fromTaz="7" toTaz="15">
        <route edges="228022815#0 228022815#2 -41963902#4 -521131212#0 203481580#4 -24452782#5 -24452782#3 286094881#0 24452804 286847273#0 319713269#2 319713269#3 319713269#4 319713269#5 72871326#0 259871042#0 297757244#0 297757244#1"/>
    </vehicle>
    <vehicle id="957" type="0" depart="12.41" departLane="free" departSpeed="max" fromTaz="18" toTaz="11">
        <route edges="160253722#1 159315422#0 31794904#3 496332196#0 496332196#1 496332199#0 259871063#0 307097146 297896463#0 297896463#2 297896463#3 306997494 -561994814#3 -561994814#0 562025614#0 gneE21 228022818#0 315886539#0 -496257360#5 gneE5"/>
    </vehicle>
    <vehicle id="1169" type="0" depart="12.70" departLane="free" departSpeed="max" fromTaz="18" toTaz="8">
        <route edges="-160913587 gneE29 24452786#0 24452786#3 496253677#10 286094870#15"/>
    </vehicle>
    <vehicle id="1951" type="0" depart="13.63" departLane="free" departSpeed="max" fromTaz="9" toTaz="6">
        <route edges="227913938#0 24452779#0 496253677#0 496253677#1 496253677#5 496253677#10 496253677#14 496253677#18 496253677#19 228022815#2 41963902#6 41963902#7"/>
    </vehicle>
    <vehicle id="1854" type="0" depart="15.49" departLane="free" departSpeed="max" fromTaz="9" toTaz="15">
        <route edges="-24452786#9 -24452786#6 -24452786#2 gneE28 -274022921#4 -274022921#3 -274022921#1 -160253722#7 159315422#0 -31794904#2"/>
    </vehicle>
    <vehicle id="1127" type="0" depart="16.93" departLane="free" departSpeed="max" fromTaz="18" toTaz="6">
        <route edges="160253722#1 160253722#4 286094874#0 286094877 286847289#0 24452783#0 496253679#0 496253680#3 286847309#2 -203481580#0 496339477#3 41963902#7"/>
    </vehicle>
    <vehicle id="1407" type="0" depart="18.99" departLane="free" departSpeed="max" fromTaz="5" toTaz="13">
        <route edges="-496339476#3 -496253680#6 -496253680#3 -496253680#2 -24452782#3 286094881#0 24452804 -521058769#1 -111343195#5 -111343195#2 -297896463#3 -297896463#2 -297896463#1 -286841509#4 -286841509#2 -279365144#3"/>
    </vehicle>
    <vehicle id="1184" type="0" depart="19.19" departLane="free" departSpeed="max" fromTaz="3" toTaz="10">
        <route edges="-496332203#2 -496332204#1 302240826#7 -496253672 -286847289#0 -286094877 -286094874#4 274022921#0 274022921#2 274022921#4 274022921#5 -227913938#10 -227913938#6"/>
    </vehicle>
    <vehicle id="483" type="0" depart="19.34" departLane="free" departSpeed="max" fromTaz="14" toTaz="15">
        <route edges="-556031052#2 -81509012#2 496249903#0 496249903#1 71285598#5 -160321090 -496332200#1 -41389169#14 -159315422#4 -31794904#2"/>
    </vehicle>
    <vehicle id="1982" type="0" depart="19.49" departLane="free" departSpeed="max" fromTaz="9" toTaz="8">
        <route edges="496253674#0 496253677#0 496253677#1 496253677#5 496253677#10 496253677#14 24452782#7"/>
    </vehicle>
    <vehicle id="1659" type="0" depart="19.49" departLane="free" departSpeed="max" fromTaz="7" toTaz="2">
        <route edges="228022815#0 228022815#2 228022815#4 228022815#5 228022815#6 286847307#0 286847307#2 286847310#0 496493917#0 530771887#0 -161036803#3 -161036803#0 279369086#1 279369086#2 306997493#0"/>
    </vehicle>
    <vehicle id="1625" type="0" depart="22.12" departLane="free" departSpeed="max" fromTaz="7" toTaz="17">
        <route edges="-521131212#2 -496253677#18 -496253677#17 -286094870#14 -286094870#10 -286094870#6 -286094870#2 -286094874#4 -160253722#7 -160253722#3"/>
    </vehicle>
    <vehicle id="1734" type="0" depart="22.85" departLane="free" departSpeed="max" fromTaz="7" toTaz="8">
        <route edges="-286094870#18 496253677#14 496253677#18 521131212#2"/>
    </vehicle>
    <vehicle id="688" type="0" depart="24.47" departLane="free" departSpeed="max" fromTaz="16" toTaz="10">
        <route edges="-71285598#7 -159315422#7 -159315422#5 -159315422#4 -31794904#2 -31794904#0 107538178#1 286852568 -304476025#12 -304476025#11 -304476025#6 -304476025#3 -227913938#10 24452779#0 496253677#0 496253677#1 27067557#0"/>
    </vehicle>
    <vehicle id="1961" type="0" depart="25.47" departLane="free" departSpeed="max" fromTaz="9" toTaz="6">
        <route edges="159307912 496253677#5 -24452786#6 -24452786#2 27067577#0 27067577#3 496253680#0 496253680#3 228022815#6 286847301#0 496339475#0"/>
    </vehicle>
    <vehicle id="184" type="0" depart="26.00" departLane="free" departSpeed="max" fromTaz="12" toTaz="10">
        <route edges="158783758#2 158783758#7 -297896463#2 -297896463#1 -307097146 -259871063#1 -496332199#1 -496332196#1 -496332196#0 -31794904#6 -31794904#2 -31794904#0 107538178#1 286852568 -304476025#12 -304476025#11 -304476025#6 -304476025#3 -227913938#10 24452779#0 -496253674#1"/>
    </vehicle>
    <vehicle id="283" type="0" depart="27.82" departLane="free" departSpeed="max" fromTaz="12" toTaz="2">
        <route edges="158995079#0 -561994814#3 -561994814#0 562025614#0 gneE21 gneE23 315886536#1 306997496#0"/>
    </vehicle>
    <vehicle id="413" type="0" depart="28.36" departLane="free" departSpeed="max" fromTaz="14" toTaz="10">
        <route edges="-228022792#1 72871344 72871329#2 72871329#3 72871329#4 72871329#5 72871331 158895303#0 307096544#0 307096544#2 307096544#4 160253727 107538178#0 107538178#1 286852568 -304476025#12 -304476025#11 -304476025#6 -304476025#3 -227913938#10 24452779#0 496253677#0 496253677#1 27067557#0"/>
    </vehicle>
    <vehicle id="209" type="0" depart="28.68" departLane="free" departSpeed="max" fromTaz="12" toTaz="13">
        <route edges="162442431#0 496257360#1 496257360#4 315886539#2 279365155#0 279365155#1 279365155#2 279365155#3 279365155#4 279365155#5 496257364#0 496257364#1 306974310#0 306974310#1 306974310#2 306974310#3 306974310#4 228022810 72871329#5 72871329#6 72871329#0 286847288#0 228022792#0"/>
    </vehicle>
    <vehicle id="279" type="0" depart="28.91" departLane="free" departSpeed="max" fromTaz="12" toTaz="2">
        <route edges="-gneE5 161036801#7 497943357#0 303889712#1 303889712#2 306997514#7 306997514#10 571719005#0"/>
    </vehicle>
    <vehicle id="862" type="0" depart="30.90" departLane="free" departSpeed="max" fromTaz="16" toTaz="6">
        <route edges="152086640#0 152086640#1 152086640#5 297757243#0 259871043#0 319713269#7 319713269#8 319713269#10 107538204#0 250710092#0 496253684#5 -552358549#4 38367679#0 38367679#2 108037210#0 158854903#0 546374573#0 546374573#5 496339475#0"/>
    </vehicle>
    <vehicle id="1724" type="0" depart="34.09" departLane="free" departSpeed="max" fromTaz="7" toTaz="6">
        <route edges="-521131212#2 496253677#19 228022815#2 228022815#4 -203481580#0 -496339477#2 496339476#0"/>
    </vehicle>
    <vehicle id="1599" type="0" depart="34.68" departLane="free" departSpeed="max" fromTaz="7" toTaz="15">
        <route edges="-24452782#8 -496253677#17 -286094870#14 -286094870#10 -286094870#6 -286094870#2 -286094874#4 -496332197#5 -41389173#1 -496332200#4 -496332200#1 -41389169#14 159315422#5 159315422#6 71285598#7"/>
    </vehicle>
    <vehicle id="1321" type="0" depart="35.92" departLane="free" departSpeed="max" fromTaz="3" toTaz="8">
        <route edges="-161010072#5 -161010072#2 108037210#4 286847309#0 286847309#2 286847309#4 286847309#8 -496253677#19 521131212#2"/>
    </vehicle>
    <vehicle id="1587" type="0" depart="37.61" departLane="free" departSpeed="max" fromTaz="7" toTaz="15">
        <route edges="-521131212#2 -496253677#18 -496253677#17 -286094870#14 -286094870#10 -286094870#6 -286094870#2 -306997497#2 -24430153#1 319713269#3 319713269#4 319713269#5 72871326#0 259871042#0 297757244#0 297757244#1"/>
    </vehicle>
    <vehicle id="1446" type="0" depart="40.07" departLane="free" departSpeed="max" fromTaz="5" toTaz="17">
        <route edges="-496339476#3 -496253680#6 -496253680#3 -496253680#2 -27067577#6 -286094870#6 -286094870#2 -286094874#4 -160253722#7 -160253722#3"/>
    </vehicle>
    <vehicle id="1652" type="0" depart="40.54" departLane="free" departSpeed="max" fromTaz="7" toTaz="2">
        <route edges="-286094870#18 -286094870#14 504514704#5 -24452782#5 -24452782#3 286094881#0 24452804 -521058769#1 250710098#0 250710098#1 250710098#2 496493902 303889712#0 303889712#1 303889712#2 303889712#5"/>
    </vehicle>
    <vehicle id="176" type="0" depart="42.87" departLane="free" departSpeed="max" fromTaz="12" toTaz="10">
        <route edges="158995079#0 -306997494 111343195#0 111343195#3 365719024#0 319713269#10 319713269#2 319713269#3 279032146#0 279032146#3 496332201#0 274022921#0 274022921#2 274022921#4 274022921#5 -227913938#10 -227913938#6"/>
    </vehicle>
    <vehicle id="1140" type="0" depart="43.22" departLane="free" departSpeed="max" fromTaz="18" toTaz="6">
        <route edges="160253722#1 160253722#4 286094874#0 286094877 286847289#0 24452783#0 496253679#0 gneE27 -203481580#3 286847309#4 41963902#6 496339477#6 496253677#22"/>
    </vehicle>
    <vehicle id="521" type="0" depart="43.49" departLane="free" departSpeed="max" fromTaz="14" toTaz="2">
        <route edges="-72871334#3 -72871334#0 72871329#3 72871329#4 72871329#5 436251058 159315419 496249898#1 297757243#0 259871063#0 307097147#0 307097147#3 536826453 496253687#1 303889712#0 303889712#1 303889712#2 303889712#5"/>
    </vehicle>
    <vehicle id="683" type="0" depart="44.02" departLane="free" departSpeed="max" fromTaz="16" toTaz="10">
        <route edges="-71285598#7 -159315422#7 -159315422#5 -159315422#4 -31794904#2 -31794904#0 107538178#1 286852568 -304476025#12 -304476025#11 -304476025#6 -304476025#3 -227913938#10 24452779#0 496253677#0 496253677#1 27067557#0"/>
    </vehicle>
    <vehicle id="1796" type="0" depart="44.75" departLane="free" departSpeed="max" fromTaz="9" toTaz="13">
        <route edges="-24452786#9 -24452786#6 -24452786#2 gneE28 160913587 304476025#4 304476025#7 304476025#12 160253726 41389178 -160253727 -307096544#5 -307096544#3 -307096544#1 -496339496#3 24452776 72871329#0 286847288#0 228022792#0"/>
    </vehicle>
    <vehicle id="1484" type="0" depart="46.42" departLane="free" departSpeed="max" fromTaz="5" toTaz="8">
        <route edges="-41963902#10 -41963902#6 286847309#8 -496253677#19 -496253677#18 24452782#7"/>
    </vehicle>
    <vehicle id="1983" type="0" depart="47.20" departLane="free" departSpeed="max" fromTaz="9" toTaz="8">
        <route edges="-24452786#9 496253677#10 286094870#15"/>
    </vehicle>
    <vehicle id="110" type="0" depart="47.59" departLane="free" departSpeed="max" fromTaz="1" toTaz="2">
        <route edges="-306997496#1 306997514#0 306997514#7 306997514#10 306997514#13 306997513#1 -158782352#5"/>
    </vehicle>
    <vehicle id="1727" type="0" depart="49.02" departLane="free" departSpeed="max" fromTaz="7" toTaz="6">
        <route edges="-286094870#18 496253677#14 496253677#18 -521131212#1 41963902#0 228022815#4 -203481580#0 -496339477#2 496339476#0"/>
    </vehicle>
    <vehicle id="564" type="0" depart="49.22" departLane="free" departSpeed="max" fromTaz="14" toTaz="4">
        <route edges="-72871334#3 -72871334#0 72871329#3 72871329#4 72871329#5 436251058 159315419 496249898#1 297757243#0 259871043#0 319713269#7 319713269#8 319713269#10 107538204#0 250710092#0 496253684#5 -552358549#4 38367679#0 41389166#0 496332204#0 -302240826#6"/>
    </vehicle>
    <vehicle id="373" type="0" depart="50.27" departLane="free" departSpeed="max" fromTaz="12" toTaz="8">
        <route edges="158995079#0 -306997494 111343195#0 111343195#3 365719024#0 319713269#10 319713269#2 24430153#0 306997497#0 286094870#0 286094870#3 286094870#7 286094870#11 286094870#15"/>
    </vehicle>
    <vehicle id="1487" type="0" depart="50.29" departLane="free" departSpeed="max" fromTaz="5" toTaz="8">
        <route edges="-496253677#23 -496253677#21 -496253677#19 -496253677#18 -496253677#17 286094870#15"/>
    </vehicle>
    <vehicle id="552" type="0" depart="53.65" departLane="free" departSpeed="max" fromTaz="14" toTaz="4">
        <route edges="-228022792#1 72871344 72871329#2 72871329#3 72871329#4 72871329#5 436251058 159315419 496249898#1 297757243#0 259871043#0 319713269#7 319713269#8 319713269#10 107538204#0 250710092#0 496253684#5 -552358549#4 38367679#0 38367679#2 108037210#0 158854903#0 496332203#0"/>
    </vehicle>
    <vehicle id="1222" type="0" depart="53.67" departLane="free" departSpeed="max" fromTaz="3" toTaz="11">
        <route edges="302240826#4 -496332204#0 -545315834#2 -545315834#1 259871045#4 496493919#0 496493919#2 -521058769#1 -111343195#5 -111343195#2 -496493905#3 81357763#0 -158783758#6"/>
    </vehicle>
    <vehicle id="326" type="0" depart="54.65" departLane="free" departSpeed="max" fromTaz="12" toTaz="4">
        <route edges="297757252#0 496257361 315886538#0 142297097#0 315886540#0 259871068#0 298812493#0 298812493#1 496493914 38367679#0 38367679#2 108037210#0 158854903#0 546374573#0 161010072#3"/>
    </vehicle>
    <vehicle id="539" type="0" depart="55.73" departLane="free" departSpeed="max" fromTaz="14" toTaz="2">
        <route edges="-556031052#2 228022808#2 228022808#3 228022808#4 228022808#6 228022809#0 228022809#4 228022809#5 228022809#7 228022809#8 228022809#9 297757252#0 496257361 315886538#0 gneE23 315886536#1 306997514#0 303889712#5"/>
    </vehicle>
    <vehicle id="1746" type="0" depart="56.23" departLane="free" departSpeed="max" fromTaz="9" toTaz="10">
        <route edges="227913938#0 24452779#0 496253677#0 496253677#1 496253677#5 24452786#7"/>
    </vehicle>
    <vehicle id="667" type="0" depart="56.66" departLane="free" departSpeed="max" fromTaz="16" toTaz="10">
        <route edges="152086640#0 -159315422#10 -159315422#7 -159315422#5 -159315422#4 -31794904#2 -31794904#0 107538178#1 286852568 -304476025#12 -304476025#11 -304476025#6 -304476025#3 -227913938#10 -227913938#6"/>
    </vehicle>
    <vehicle id="1328" type="0" depart="57.46" departLane="free" departSpeed="max" fromTaz="3" toTaz="8">
        <route edges="-496332203#2 546374573#0 -161010072#2 108037210#4 286847309#0 286847309#2 203481580#2 521131212#0 521131212#1 -496253677#18 24452782#7"/>
    </vehicle>
    <vehicle id="742" type="0" depart="57.74" departLane="free" departSpeed="max" fromTaz="16" toTaz="13">
        <route edges="152086640#0 152086640#1 -496249903#0 297757244#1 228022791 24452776 72871329#0 286847288#0 228022792#0"/>
    </vehicle>
    <vehicle id="1129" type="0" depart="57.92" departLane="free" departSpeed="max" fromTaz="18" toTaz="6">
        <route edges="160253722#1 160253722#4 286094874#0 286094877 286847289#0 24452783#0 496253679#0 496253680#3 286847309#2 -203481580#0 496339477#3 41963902#7"/>
    </vehicle>
    <vehicle id="549" type="0" depart="58.11" departLane="free" departSpeed="max" fromTaz="14" toTaz="2">
        <route edges="81509011#0 228022808#4 228022808#6 228022809#0 228022809#4 228022809#5 228022809#7 228022809#8 228022809#9 297757252#0 496257361 315886538#0 gneE23 497943357#0 303889712#1 303889712#2 306997514#7 306997514#10 571719005#0"/>
    </vehicle>
    <vehicle id="154" type="0" depart="59.16" departLane="free" departSpeed="max" fromTaz="1" toTaz="8">
        <route edges="158895309#2 306997492#0 306997492#2 107538207#0 107538207#2 496253684#0 496253684#5 496253682#0 -286847289#0 286094878#0 24452782#4 24452782#6 24452782#7"/>
    </vehicle>
    <vehicle id="630" type="0" depart="59.64" departLane="free" departSpeed="max" fromTaz="14" toTaz="8">
        <route edges="-556031052#2 -81509012#2 496249898#1 297757243#0 259871043#0 319713269#7 319713269#8 319713269#10 107538204#0 -24452804 -286094881#1 286094878#0 24452782#4 24452782#6 24452782#7"/>
    </vehicle>
    <vehicle id="1263" type="0" depart="60.08" departLane="free" departSpeed="max" fromTaz="3" toTaz="15">
        <route edges="302240826#4 302240826#7 -496253672 -286847289#0 286094881#0 -306997498#3 -159279412 -41389183#2 -496332200#7 -496332200#4 -496332200#1 -41389169#14 -41389169#13"/>
    </vehicle>
    <vehicle id="550" type="0" depart="61.67" departLane="free" departSpeed="max" fromTaz="14" toTaz="2">
        <route edges="-72871334#3 -72871334#0 72871329#3 27067581 228022808#0 228022808#2 228022808#3 228022808#4 228022808#6 228022809#0 228022809#4 228022809#5 228022809#7 228022809#8 228022809#9 297757252#0 496257361 315886538#0 gneE23 315886536#1 306997496#0"/>
    </vehicle>
    <vehicle id="868" type="0" depart="62.04" departLane="free" departSpeed="max" fromTaz="16" toTaz="6">
        <route edges="31794904#1 -159315422#0 160253722#4 286094874#0 286094877 286847289#0 24452783#0 496253679#0 496253680#3 496253680#5 496339476#0"/>
    </vehicle>
    <vehicle id="1412" type="0" depart="62.34" departLane="free" departSpeed="max" fromTaz="5" toTaz="15">
        <route edges="-496339476#3 -496253680#6 -496253680#3 -496253680#2 -27067577#6 -286094870#6 -286094870#2 -286094874#4 -160253722#7 159315422#0 -31794904#2"/>
    </vehicle>
    <vehicle id="1343" type="0" depart="63.40" departLane="free" departSpeed="max" fromTaz="5" toTaz="10">
        <route edges="-41963902#10 -41963902#6 286847309#8 -496253677#19 -496253677#18 -496253677#17 -496253677#13 -496253677#9 -496253677#2 -496253677#0 -24452779#1 -227913938#6"/>
    </vehicle>
    <vehicle id="779" type="0" depart="63.50" departLane="free" departSpeed="max" fromTaz="16" toTaz="17">
        <route edges="31794904#1 -159315422#0 -160253722#3"/>
    </vehicle>
    <vehicle id="1848" type="0" depart="63.69" departLane="free" departSpeed="max" fromTaz="9" toTaz="15">
        <route edges="227913938#0 227913938#7 304476025#0 304476025#4 304476025#7 304476025#12 160253726 41389178 -160253727 -307096544#5 -307096544#3 -71285598#7 159315422#8 -152086640#0"/>
    </vehicle>
    <vehicle id="677" type="0" depart="67.62" departLane="free" departSpeed="max" fromTaz="16" toTaz="10">
        <route edges="159315419 496249903#0 496249903#1 71285598#5 -160321090 -496332200#1 -41389169#14 -159315422#4 -31794904#2 -31794904#0 107538178#1 286852568 -304476025#12 -304476025#11 -304476025#6 -304476025#3 -227913938#10 24452779#0 -496253674#1"/>
    </vehicle>
    <vehicle id="1387" type="0" depart="67.65" departLane="free" departSpeed="max" fromTaz="5" toTaz="13">
        <route edges="-496253677#23 -496339477#7 -41963902#6 228022815#4 203481580#2 -521131211 -496253680#2 -24452782#3 286094881#0 24452804 -521058769#1 -111343195#5 -111343195#2 -297896463#3 -297896463#2 -297896463#1 -286841509#4 -286841509#2 -279365144#3"/>
    </vehicle>
    <vehicle id="1906" type="0" depart="68.26" departLane="free" departSpeed="max" fromTaz="9" toTaz="2">
        <route edges="-24452786#9 -24452786#6 -24452786#2 27067577#0 27067577#3 -24452782#3 286094881#0 24452804 -521058769#1 250710098#0 250710098#1 250710098#2 496493902 303889712#0 303889712#1 303889712#2 306997514#7 306997514#10 571719005#0"/>
    </vehicle>
    <vehicle id="1777" type="0" depart="68.35" departLane="free" departSpeed="max" fromTaz="9" toTaz="11">
        <route edges="496253674#0 -24452779#1 227913938#7 -274022921#6 -274022921#4 -274022921#3 -274022921#1 -496332201#4 -279032146#4 -279032146#2 319713269#4 319713269#5 319713269#7 31794905#0 307097146 297896463#0 297896463#2 297896463#3 306997494 -561994814#3 -561994814#0 562025614#0 gneE21 228022818#0 315886539#0 315886539#2"/>
    </vehicle>
    <vehicle id="1026" type="0" depart="69.94" departLane="free" departSpeed="max" fromTaz="18" toTaz="13">
        <route edges="160253722#1 159315422#0 159315422#1 41389169#14 496332200#0 160321090 -71285598#5 -496249903#1 -496249903#0 81509012#1 228022808#2 228022808#3 -81509011#2"/>
    </vehicle>
    <vehicle id="1604" type="0" depart="70.54" departLane="free" departSpeed="max" fromTaz="7" toTaz="15">
        <route edges="-24452782#8 -496253677#17 -286094870#14 -286094870#10 -286094870#6 -286094870#2 -306997497#2 -24430153#1 319713269#3 319713269#4 319713269#5 72871326#0 259871042#0 297757244#0 297757244#1"/>
    </vehicle>
    <vehicle id="1452" type="0" depart="71.04" departLane="free" departSpeed="max" fromTaz="5" toTaz="2">
        <route edges="-496339476#3 -297757248#1 -546374573#5 -546374573#4 -496332204#1 -496332204#0 -545315834#2 -545315834#1 -161036803#3 -161036803#0 279369086#1 -159244459#2 -159244459#1 303889712#2 303889712#5"/>
    </vehicle>
    <vehicle id="470" type="0" depart="72.27" departLane="free" departSpeed="max" fromTaz="14" toTaz="15">
        <route edges="-72871334#3 -72871334#0 72871329#3 72871329#4 72871329#5 436251058 159315419 496249903#0 -152086640#4 -152086640#0"/>
    </vehicle>
    <vehicle id="969" type="0" depart="74.89" departLane="free" departSpeed="max" fromTaz="18" toTaz="11">
        <route edges="160253722#1 159315422#0 31794904#3 496332196#0 496332196#1 496332199#0 259871063#0 307097146 297896463#0 297896463#2 297896463#3 306997494 -561994814#3 -561994814#0 562025614#0 gneE21 228022818#0 315886539#0 -496257360#5 -496257360#3 306997515#4"/>
    </vehicle>
    <vehicle id="616" type="0" depart="75.52" departLane="free" departSpeed="max" fromTaz="14" toTaz="8">
        <route edges="-556031052#2 -81509012#2 496249898#1 297757243#0 259871043#0 319713269#7 319713269#8 319713269#10 319713269#2 24430153#0 306997497#0 286094870#0 286094870#3 286094870#7 286094870#11 286094870#15"/>
    </vehicle>
    <vehicle id="1706" type="0" depart="76.32" departLane="free" departSpeed="max" fromTaz="7" toTaz="6">
        <route edges="-24452782#8 496253677#18 -521131212#1 -521131212#0 -203481580#3 228022815#5 496253680#5 -297757248#1 496339475#0"/>
    </vehicle>
    <vehicle id="1151" type="0" depart="77.62" departLane="free" departSpeed="max" fromTaz="18" toTaz="8">
        <route edges="-160913587 gneE29 24452786#0 24452786#3 496253677#10 496253677#14 24452782#7"/>
    </vehicle>
    <vehicle id="981" type="0" depart="77.70" departLane="free" departSpeed="max" fromTaz="18" toTaz="11">
        <route edges="-160913587 -274022921#4 -274022921#3 -274022921#1 -496332201#4 -279032146#4 -279032146#2 319713269#4 319713269#5 319713269#7 31794905#0 307097146 297896463#0 297896463#2 297896463#3 306997494 -158995079#1"/>
    </vehicle>
    <vehicle id="1815" type="0" depart="77.94" departLane="free" departSpeed="max" fromTaz="9" toTaz="13">
        <route edges="-24452786#9 -24452786#6 -24452786#2 gneE28 160913587 304476025#4 304476025#7 304476025#12 160253726 41389178 -160253727 -307096544#5 -307096544#3 -307096544#1 -496339496#3 24452776 72871329#0 72871329#1 72871329#2 72871334#0 72871334#1"/>
    </vehicle>
    <vehicle id="1172" type="0" depart="80.21" departLane="free" departSpeed="max" fromTaz="18" toTaz="8">
        <route edges="160253722#1 160253722#4 286094874#0 286094877 286847289#0 24452783#0 496253679#0 gneE27 521131212#0 521131212#1 521131212#2"/>
    </vehicle>
    <vehicle id="1486" type="0" depart="81.80" departLane="free" departSpeed="max" fromTaz="5" toTaz="8">
        <route edges="-41963902#10 -41963902#6 286847309#8 -496253677#19 -496253677#18 -496253677#17 286094870#15"/>
    </vehicle>
    <vehicle id="14" type="0" depart="81.96" departLane="free" departSpeed="max" fromTaz="1" toTaz="10">
        <route edges="-303889712#6 -303889712#3 -303889712#1 -303889712#0 259871068#0 107538207#0 107538207#2 496253685 365719024#0 319713269#10 319713269#2 319713269#3 279032146#0 279032146#3 496332201#0 274022921#0 274022921#2 274022921#4 274022921#5 -227913938#10 24452779#0 -496253674#1"/>
    </vehicle>
    <vehicle id="1524" type="0" depart="82.48" departLane="free" departSpeed="max" fromTaz="7" toTaz="11">
        <route edges="-521131212#2 -521131212#1 -521131212#0 -521131211 -496253679#6 -24452783#5 -496253682#3 -496253684#6 -496253684#3 250710098#1 250710098#2 496493902 259871069#0 315886537#0 228022818#0 315886539#0 -496257360#5 gneE5"/>
    </vehicle>
    <vehicle id="475" type="0" depart="82.49" departLane="free" departSpeed="max" fromTaz="14" toTaz="15">
        <route edges="81509011#0 306974310#2 306974310#3 -81509012#2 496249903#0 496249903#1 71285598#5 71285598#6 71285598#7"/>
    </vehicle>
    <vehicle id="395" type="0" depart="82.88" departLane="free" departSpeed="max" fromTaz="12" toTaz="8">
        <route edges="297757252#0 496257361 315886538#0 142297097#0 315886540#0 259871068#0 107538207#0 107538207#2 496253684#0 496253684#5 496253682#0 -286847289#0 286094878#0 24452782#4 24452782#6 24452782#7"/>
    </vehicle>
    <vehicle id="770" type="0" depart="84.82" departLane="free" departSpeed="max" fromTaz="16" toTaz="15">
        <route edges="152086640#0 152086640#1 -496249903#0 297757244#1"/>
    </vehicle>
    <vehicle id="1763" type="0" depart="85.36" departLane="free" departSpeed="max" fromTaz="9" toTaz="11">
        <route edges="496253674#0 -24452779#1 227913938#7 -274022921#6 -274022921#4 -274022921#3 -274022921#1 -496332201#4 -279032146#4 -279032146#2 319713269#4 319713269#5 319713269#7 31794905#0 307097146 297896463#0 297896463#2 -158783758#8 -158783758#6"/>
    </vehicle>
    <vehicle id="1070" type="0" depart="86.61" departLane="free" departSpeed="max" fromTaz="18" toTaz="2">
        <route edges="160253722#1 160253722#4 -496332201#4 -279032146#4 -279032146#2 319713269#4 319713269#5 319713269#7 319713269#8 107538158#0 250710098#0 250710098#1 250710098#2 279369086#0 279369086#1 279369086#2 306997513#1 -158782352#5"/>
    </vehicle>
    <vehicle id="1228" type="0" depart="86.96" departLane="free" departSpeed="max" fromTaz="3" toTaz="11">
        <route edges="302240826#4 -496332204#0 -545315834#2 -545315834#1 -161036803#3 -161036803#0 -497943357#6 -497943357#4 -497943357#2 -161036801#9 gneE5"/>
    </vehicle>
    <vehicle id="71" type="0" depart="87.78" departLane="free" departSpeed="max" fromTaz="1" toTaz="13">