<configuration xmlns:xsi="http://www.w3.org/2001/XMLSchema-instance" xsi:noNamespaceSchemaLocation="http://sumo.sf.net/xsd/sumoConfiguration.xsd">

    <input>
        <net-file value="Tainan.net.xml"/>
        <route-files value="od_route_file.odtrips7.rou.xml"/>
	<additional-files value="Tainan.det.xml"/>
    </input>
	
	<output>
        <tripinfo-output value="noretripinfo07.xml"/>
    </output>

    <time>
        <begin value="0"/>
    </time>


</configuration>